data_acs-a_P63/mmc  hall_number: 488, V_con: 4
_audit_creation_date              2025-03-05
_audit_creation_method            'MOFbuilder_1.0'
_symmetry_space_group_name_H-M    'P1'
_symmetry_Int_Tables_number       1
_symmetry_cell_setting            triclinic
loop_
_symmetry_equiv_pos_as_xyz
  x,y,z
_cell_length_a                    34.5312
_cell_length_b                    34.5312
_cell_length_c                    30.884
_cell_angle_alpha                 90.0
_cell_angle_beta                  90.0
_cell_angle_gamma                 120.0
loop_
_atom_site_label
_atom_site_type_symbol
_atom_site_fract_x
_atom_site_fract_y
_atom_site_fract_z
V1    V   0.14027  0.57013  0.58810
V2    V   0.14027  0.57013  0.91190
V3    V   0.14027  0.57014  0.58810
V4    V   0.14027  0.57014  0.91190
V5    V   0.42986  0.57013  0.58810
V6    V   0.42986  0.57013  0.91190
V7    V   0.42986  0.85973  0.58810
V8    V   0.42986  0.85973  0.91190
V9    V   0.42987  0.57014  0.58810
V10   V   0.42987  0.57014  0.91190
V11   V   0.42987  0.85973  0.58810
V12   V   0.42987  0.85973  0.91190
V13   V   0.57013  0.14027  0.08810
V14   V   0.57013  0.14027  0.41190
V15   V   0.57013  0.42986  0.08810
V16   V   0.57013  0.42986  0.41190
V17   V   0.57014  0.14027  0.08810
V18   V   0.57014  0.14027  0.41190
V19   V   0.57014  0.42987  0.08810
V20   V   0.57014  0.42987  0.41190
V21   V   0.85973  0.42986  0.08810
V22   V   0.85973  0.42986  0.41190
V23   V   0.85973  0.42987  0.08810
V24   V   0.85973  0.42987  0.41190
E1    E   0.00000  0.50000  0.00000
E2    E   0.00000  0.50000  0.50000
E3    E   0.14027  0.57013  0.75000
E4    E   0.14027  0.57014  0.75000
E5    E   0.28507  0.57014  0.58810
E6    E   0.28507  0.57014  0.91190
E7    E   0.28507  0.71493  0.58810
E8    E   0.28507  0.71493  0.91190
E9    E   0.42986  0.57013  0.75000
E10   E   0.42986  0.71493  0.58810
E11   E   0.42986  0.71493  0.91190
E12   E   0.42986  0.85973  0.75000
E13   E   0.42987  0.57014  0.75000
E14   E   0.42987  0.85973  0.75000
E15   E   0.50000  0.00000  0.00000
E16   E   0.50000  0.00000  0.50000
E17   E   0.50000  0.50000  0.00000
E18   E   0.50000  0.50000  0.50000
E19   E   0.57013  0.14027  0.25000
E20   E   0.57013  0.42986  0.25000
E21   E   0.57014  0.14027  0.25000
E22   E   0.57014  0.28507  0.08810
E23   E   0.57014  0.28507  0.41190
E24   E   0.57014  0.42987  0.25000
E25   E   0.71493  0.28507  0.08810
E26   E   0.71493  0.28507  0.41190
E27   E   0.71493  0.42986  0.08810
E28   E   0.71493  0.42986  0.41190
E29   E   0.85973  0.42986  0.25000
E30   E   0.85973  0.42987  0.25000
loop_
