data_ana-e_Ia-3d  hall_number: 530, V_con: 6
_audit_creation_date              2025-03-05
_audit_creation_method            'MOFbuilder_1.0'
_symmetry_space_group_name_H-M    'P1'
_symmetry_Int_Tables_number       1
_symmetry_cell_setting            triclinic
loop_
_symmetry_equiv_pos_as_xyz
  x,y,z
_cell_length_a                    51.6134
_cell_length_b                    51.6134
_cell_length_c                    51.6134
_cell_angle_alpha                 90.0
_cell_angle_beta                  90.0
_cell_angle_gamma                 90.0
loop_
_atom_site_label
_atom_site_type_symbol
_atom_site_fract_x
_atom_site_fract_y
_atom_site_fract_z
V1    V   0.02837  0.11807  0.35828
V2    V   0.02837  0.38193  0.85828
V3    V   0.02837  0.61807  0.64172
V4    V   0.02837  0.88193  0.14172
V5    V   0.10828  0.13193  0.72163
V6    V   0.10828  0.36807  0.22163
V7    V   0.10828  0.63193  0.27837
V8    V   0.10828  0.86807  0.77837
V9    V   0.11807  0.14172  0.52837
V10   V   0.11807  0.35828  0.02837
V11   V   0.11807  0.64172  0.47163
V12   V   0.11807  0.85828  0.97163
V13   V   0.13193  0.22163  0.89172
V14   V   0.13193  0.27837  0.39172
V15   V   0.13193  0.72163  0.10828
V16   V   0.13193  0.77837  0.60828
V17   V   0.14172  0.02837  0.88193
V18   V   0.14172  0.47163  0.38193
V19   V   0.14172  0.52837  0.11807
V20   V   0.14172  0.97163  0.61807
V21   V   0.22163  0.10828  0.36807
V22   V   0.22163  0.39172  0.86807
V23   V   0.22163  0.60828  0.63193
V24   V   0.22163  0.89172  0.13193
V25   V   0.27837  0.10828  0.63193
V26   V   0.27837  0.39172  0.13193
V27   V   0.27837  0.60828  0.36807
V28   V   0.27837  0.89172  0.86807
V29   V   0.35828  0.02837  0.11807
V30   V   0.35828  0.47163  0.61807
V31   V   0.35828  0.52837  0.88193
V32   V   0.35828  0.97163  0.38193
V33   V   0.36807  0.22163  0.10828
V34   V   0.36807  0.27837  0.60828
V35   V   0.36807  0.72163  0.89172
V36   V   0.36807  0.77837  0.39172
V37   V   0.38193  0.14172  0.47163
V38   V   0.38193  0.35828  0.97163
V39   V   0.38193  0.64172  0.52837
V40   V   0.38193  0.85828  0.02837
V41   V   0.39172  0.13193  0.27837
V42   V   0.39172  0.36807  0.77837
V43   V   0.39172  0.63193  0.72163
V44   V   0.39172  0.86807  0.22163
V45   V   0.47163  0.11807  0.64172
V46   V   0.47163  0.38193  0.14172
V47   V   0.47163  0.61807  0.35828
V48   V   0.47163  0.88193  0.85828
V49   V   0.52837  0.11807  0.14172
V50   V   0.52837  0.38193  0.64172
V51   V   0.52837  0.61807  0.85828
V52   V   0.52837  0.88193  0.35828
V53   V   0.60828  0.13193  0.77837
V54   V   0.60828  0.36807  0.27837
V55   V   0.60828  0.63193  0.22163
V56   V   0.60828  0.86807  0.72163
V57   V   0.61807  0.14172  0.97163
V58   V   0.61807  0.35828  0.47163
V59   V   0.61807  0.64172  0.02837
V60   V   0.61807  0.85828  0.52837
V61   V   0.63193  0.22163  0.60828
V62   V   0.63193  0.27837  0.10828
V63   V   0.63193  0.72163  0.39172
V64   V   0.63193  0.77837  0.89172
V65   V   0.64172  0.02837  0.61807
V66   V   0.64172  0.47163  0.11807
V67   V   0.64172  0.52837  0.38193
V68   V   0.64172  0.97163  0.88193
V69   V   0.72163  0.10828  0.13193
V70   V   0.72163  0.39172  0.63193
V71   V   0.72163  0.60828  0.86807
V72   V   0.72163  0.89172  0.36807
V73   V   0.77837  0.10828  0.86807
V74   V   0.77837  0.39172  0.36807
V75   V   0.77837  0.60828  0.13193
V76   V   0.77837  0.89172  0.63193
V77   V   0.85828  0.02837  0.38193
V78   V   0.85828  0.47163  0.88193
V79   V   0.85828  0.52837  0.61807
V80   V   0.85828  0.97163  0.11807
V81   V   0.86807  0.22163  0.39172
V82   V   0.86807  0.27837  0.89172
V83   V   0.86807  0.72163  0.60828
V84   V   0.86807  0.77837  0.10828
V85   V   0.88193  0.14172  0.02837
V86   V   0.88193  0.35828  0.52837
V87   V   0.88193  0.64172  0.97163
V88   V   0.88193  0.85828  0.47163
V89   V   0.89172  0.13193  0.22163
V90   V   0.89172  0.36807  0.72163
V91   V   0.89172  0.63193  0.77837
V92   V   0.89172  0.86807  0.27837
V93   V   0.97163  0.11807  0.85828
V94   V   0.97163  0.38193  0.35828
V95   V   0.97163  0.61807  0.14172
V96   V   0.97163  0.88193  0.64172
E1    E   0.03995  0.12500  0.78995
E2    E   0.03995  0.37500  0.28995
E3    E   0.03995  0.62500  0.21005
E4    E   0.03995  0.87500  0.71005
E5    E   0.03995  0.12500  0.78995
E6    E   0.03995  0.37500  0.28995
E7    E   0.03995  0.62500  0.21005
E8    E   0.03995  0.87500  0.71005
E9    E   0.05178  0.16985  0.87500
E10   E   0.05178  0.33015  0.37500
E11   E   0.05178  0.66985  0.12500
E12   E   0.05178  0.83015  0.62500
E13   E   0.05667  0.07322  0.87010
E14   E   0.05667  0.42678  0.37010
E15   E   0.05667  0.57322  0.12990
E16   E   0.05667  0.92678  0.62990
E17   E   0.07322  0.12990  0.44333
E18   E   0.07322  0.37010  0.94333
E19   E   0.07322  0.62990  0.55667
E20   E   0.07322  0.87010  0.05667
E21   E   0.08015  0.19822  0.37500
E22   E   0.08015  0.30178  0.87500
E23   E   0.08015  0.69822  0.62500
E24   E   0.08015  0.80178  0.12500
E25   E   0.11318  0.13682  0.62500
E26   E   0.11318  0.36318  0.12500
E27   E   0.11318  0.63682  0.37500
E28   E   0.11318  0.86318  0.87500
E29   E   0.11318  0.13682  0.62500
E30   E   0.11318  0.36318  0.12500
E31   E   0.11318  0.63682  0.37500
E32   E   0.11318  0.86318  0.87500
E33   E   0.12010  0.17678  0.80667
E34   E   0.12010  0.32322  0.30667
E35   E   0.12010  0.67678  0.19333
E36   E   0.12010  0.82322  0.69333
E37   E   0.12500  0.05178  0.66985
E38   E   0.12500  0.08015  0.80178
E39   E   0.12500  0.11318  0.36318
E40   E   0.12500  0.11318  0.36318
E41   E   0.12500  0.21005  0.46005
E42   E   0.12500  0.28995  0.96005
E43   E   0.12500  0.28995  0.96005
E44   E   0.12500  0.38682  0.86318
E45   E   0.12500  0.41985  0.30178
E46   E   0.12500  0.44822  0.16985
E47   E   0.12500  0.55178  0.33015
E48   E   0.12500  0.58015  0.19822
E49   E   0.12500  0.61318  0.63682
E50   E   0.12500  0.71005  0.53995
E51   E   0.12500  0.71005  0.53995
E52   E   0.12500  0.78995  0.03995
E53   E   0.12500  0.78995  0.03995
E54   E   0.12500  0.88682  0.13682
E55   E   0.12500  0.91985  0.69822
E56   E   0.12500  0.94822  0.83015
E57   E   0.12990  0.05667  0.57322
E58   E   0.12990  0.44333  0.07322
E59   E   0.12990  0.55667  0.42678
E60   E   0.12990  0.94333  0.92678
E61   E   0.13682  0.12500  0.88682
E62   E   0.13682  0.37500  0.38682
E63   E   0.13682  0.62500  0.11318
E64   E   0.13682  0.62500  0.11318
E65   E   0.13682  0.87500  0.61318
E66   E   0.16985  0.12500  0.44822
E67   E   0.16985  0.37500  0.94822
E68   E   0.16985  0.62500  0.55178
E69   E   0.16985  0.87500  0.05178
E70   E   0.17678  0.19333  0.37990
E71   E   0.17678  0.30667  0.87990
E72   E   0.17678  0.69333  0.62010
E73   E   0.17678  0.80667  0.12010
E74   E   0.19333  0.12010  0.67678
E75   E   0.19333  0.37990  0.17678
E76   E   0.19333  0.62010  0.32322
E77   E   0.19333  0.87990  0.82322
E78   E   0.19822  0.12500  0.58015
E79   E   0.19822  0.37500  0.08015
E80   E   0.19822  0.62500  0.41985
E81   E   0.19822  0.87500  0.91985
E82   E   0.21005  0.03995  0.62500
E83   E   0.21005  0.03995  0.62500
E84   E   0.21005  0.46005  0.12500
E85   E   0.21005  0.53995  0.37500
E86   E   0.21005  0.53995  0.37500
E87   E   0.21005  0.96005  0.87500
E88   E   0.21005  0.96005  0.87500
E89   E   0.28995  0.03995  0.37500
E90   E   0.28995  0.03995  0.37500
E91   E   0.28995  0.46005  0.87500
E92   E   0.28995  0.53995  0.62500
E93   E   0.28995  0.53995  0.62500
E94   E   0.28995  0.96005  0.12500
E95   E   0.28995  0.96005  0.12500
E96   E   0.30178  0.12500  0.41985
E97   E   0.30178  0.37500  0.91985
E98   E   0.30178  0.62500  0.58015
E99   E   0.30178  0.87500  0.08015
E100  E   0.30667  0.12010  0.32322
E101  E   0.30667  0.37990  0.82322
E102  E   0.30667  0.62010  0.67678
E103  E   0.30667  0.87990  0.17678
E104  E   0.32322  0.19333  0.62010
E105  E   0.32322  0.30667  0.12010
E106  E   0.32322  0.69333  0.37990
E107  E   0.32322  0.80667  0.87990
E108  E   0.33015  0.12500  0.55178
E109  E   0.33015  0.37500  0.05178
E110  E   0.33015  0.62500  0.44822
E111  E   0.33015  0.87500  0.94822
E112  E   0.36318  0.12500  0.11318
E113  E   0.36318  0.12500  0.11318
E114  E   0.36318  0.37500  0.61318
E115  E   0.36318  0.62500  0.88682
E116  E   0.36318  0.87500  0.38682
E117  E   0.37010  0.05667  0.42678
E118  E   0.37010  0.44333  0.92678
E119  E   0.37010  0.55667  0.57322
E120  E   0.37010  0.94333  0.07322
E121  E   0.37500  0.05178  0.33015
E122  E   0.37500  0.08015  0.19822
E123  E   0.37500  0.11318  0.63682
E124  E   0.37500  0.11318  0.63682
E125  E   0.37500  0.21005  0.53995
E126  E   0.37500  0.21005  0.53995
E127  E   0.37500  0.28995  0.03995
E128  E   0.37500  0.28995  0.03995
E129  E   0.37500  0.38682  0.13682
E130  E   0.37500  0.41985  0.69822
E131  E   0.37500  0.44822  0.83015
E132  E   0.37500  0.55178  0.66985
E133  E   0.37500  0.58015  0.80178
E134  E   0.37500  0.61318  0.36318
E135  E   0.37500  0.71005  0.46005
E136  E   0.37500  0.71005  0.46005
E137  E   0.37500  0.78995  0.96005
E138  E   0.37500  0.78995  0.96005
E139  E   0.37500  0.88682  0.86318
E140  E   0.37500  0.91985  0.30178
E141  E   0.37500  0.94822  0.16985
E142  E   0.37990  0.17678  0.19333
E143  E   0.37990  0.32322  0.69333
E144  E   0.37990  0.67678  0.80667
E145  E   0.37990  0.82322  0.30667
E146  E   0.38682  0.13682  0.37500
E147  E   0.38682  0.36318  0.87500
E148  E   0.38682  0.63682  0.62500
E149  E   0.38682  0.86318  0.12500
E150  E   0.41985  0.19822  0.62500
E151  E   0.41985  0.30178  0.12500
E152  E   0.41985  0.69822  0.37500
E153  E   0.41985  0.80178  0.87500
E154  E   0.42678  0.12990  0.55667
E155  E   0.42678  0.37010  0.05667
E156  E   0.42678  0.62990  0.44333
E157  E   0.42678  0.87010  0.94333
E158  E   0.44333  0.07322  0.12990
E159  E   0.44333  0.42678  0.62990
E160  E   0.44333  0.57322  0.87010
E161  E   0.44333  0.92678  0.37010
E162  E   0.44822  0.16985  0.12500
E163  E   0.44822  0.33015  0.62500
E164  E   0.44822  0.66985  0.87500
E165  E   0.44822  0.83015  0.37500
E166  E   0.46005  0.12500  0.21005
E167  E   0.46005  0.37500  0.71005
E168  E   0.46005  0.37500  0.71005
E169  E   0.46005  0.62500  0.78995
E170  E   0.46005  0.62500  0.78995
E171  E   0.46005  0.87500  0.28995
E172  E   0.53995  0.12500  0.71005
E173  E   0.53995  0.37500  0.21005
E174  E   0.53995  0.62500  0.28995
E175  E   0.53995  0.87500  0.78995
E176  E   0.53995  0.12500  0.71005
E177  E   0.53995  0.37500  0.21005
E178  E   0.53995  0.62500  0.28995
E179  E   0.53995  0.87500  0.78995
E180  E   0.55178  0.16985  0.62500
E181  E   0.55178  0.33015  0.12500
E182  E   0.55178  0.66985  0.37500
E183  E   0.55178  0.83015  0.87500
E184  E   0.55667  0.07322  0.62990
E185  E   0.55667  0.42678  0.12990
E186  E   0.55667  0.57322  0.37010
E187  E   0.55667  0.92678  0.87010
E188  E   0.57322  0.12990  0.05667
E189  E   0.57322  0.37010  0.55667
E190  E   0.57322  0.62990  0.94333
E191  E   0.57322  0.87010  0.44333
E192  E   0.58015  0.19822  0.12500
E193  E   0.58015  0.30178  0.62500
E194  E   0.58015  0.69822  0.87500
E195  E   0.58015  0.80178  0.37500
E196  E   0.61318  0.13682  0.87500
E197  E   0.61318  0.36318  0.37500
E198  E   0.61318  0.63682  0.12500
E199  E   0.61318  0.86318  0.62500
E200  E   0.62010  0.17678  0.69333
E201  E   0.62010  0.32322  0.19333
E202  E   0.62010  0.67678  0.30667
E203  E   0.62010  0.82322  0.80667
E204  E   0.62500  0.05178  0.83015
E205  E   0.62500  0.08015  0.69822
E206  E   0.62500  0.11318  0.13682
E207  E   0.62500  0.11318  0.13682
E208  E   0.62500  0.21005  0.03995
E209  E   0.62500  0.21005  0.03995
E210  E   0.62500  0.28995  0.53995
E211  E   0.62500  0.28995  0.53995
E212  E   0.62500  0.38682  0.63682
E213  E   0.62500  0.41985  0.19822
E214  E   0.62500  0.44822  0.33015
E215  E   0.62500  0.55178  0.16985
E216  E   0.62500  0.58015  0.30178
E217  E   0.62500  0.61318  0.86318
E218  E   0.62500  0.71005  0.96005
E219  E   0.62500  0.71005  0.96005
E220  E   0.62500  0.78995  0.46005
E221  E   0.62500  0.78995  0.46005
E222  E   0.62500  0.88682  0.36318
E223  E   0.62500  0.91985  0.80178
E224  E   0.62500  0.94822  0.66985
E225  E   0.62990  0.05667  0.92678
E226  E   0.62990  0.44333  0.42678
E227  E   0.62990  0.55667  0.07322
E228  E   0.62990  0.94333  0.57322
E229  E   0.63682  0.12500  0.61318
E230  E   0.63682  0.37500  0.11318
E231  E   0.63682  0.37500  0.11318
E232  E   0.63682  0.62500  0.38682
E233  E   0.63682  0.87500  0.88682
E234  E   0.66985  0.12500  0.05178
E235  E   0.66985  0.37500  0.55178
E236  E   0.66985  0.62500  0.94822
E237  E   0.66985  0.87500  0.44822
E238  E   0.67678  0.19333  0.12010
E239  E   0.67678  0.30667  0.62010
E240  E   0.67678  0.69333  0.87990
E241  E   0.67678  0.80667  0.37990
E242  E   0.69333  0.12010  0.82322
E243  E   0.69333  0.37990  0.32322
E244  E   0.69333  0.62010  0.17678
E245  E   0.69333  0.87990  0.67678
E246  E   0.69822  0.12500  0.91985
E247  E   0.69822  0.37500  0.41985
E248  E   0.69822  0.62500  0.08015
E249  E   0.69822  0.87500  0.58015
E250  E   0.71005  0.03995  0.87500
E251  E   0.71005  0.46005  0.37500
E252  E   0.71005  0.53995  0.12500
E253  E   0.71005  0.96005  0.62500
E254  E   0.71005  0.03995  0.87500
E255  E   0.71005  0.46005  0.37500
E256  E   0.71005  0.53995  0.12500
E257  E   0.71005  0.96005  0.62500
E258  E   0.78995  0.03995  0.12500
E259  E   0.78995  0.46005  0.62500
E260  E   0.78995  0.53995  0.87500
E261  E   0.78995  0.96005  0.37500
E262  E   0.78995  0.03995  0.12500
E263  E   0.78995  0.46005  0.62500
E264  E   0.78995  0.53995  0.87500
E265  E   0.78995  0.96005  0.37500
E266  E   0.80178  0.12500  0.08015
E267  E   0.80178  0.37500  0.58015
E268  E   0.80178  0.62500  0.91985
E269  E   0.80178  0.87500  0.41985
E270  E   0.80667  0.12010  0.17678
E271  E   0.80667  0.37990  0.67678
E272  E   0.80667  0.62010  0.82322
E273  E   0.80667  0.87990  0.32322
E274  E   0.82322  0.19333  0.87990
E275  E   0.82322  0.30667  0.37990
E276  E   0.82322  0.69333  0.12010
E277  E   0.82322  0.80667  0.62010
E278  E   0.83015  0.12500  0.94822
E279  E   0.83015  0.37500  0.44822
E280  E   0.83015  0.62500  0.05178
E281  E   0.83015  0.87500  0.55178
E282  E   0.86318  0.12500  0.38682
E283  E   0.86318  0.37500  0.88682
E284  E   0.86318  0.62500  0.61318
E285  E   0.86318  0.87500  0.11318
E286  E   0.86318  0.87500  0.11318
E287  E   0.87010  0.05667  0.07322
E288  E   0.87010  0.44333  0.57322
E289  E   0.87010  0.55667  0.92678
E290  E   0.87010  0.94333  0.42678
E291  E   0.87500  0.05178  0.16985
E292  E   0.87500  0.08015  0.30178
E293  E   0.87500  0.11318  0.86318
E294  E   0.87500  0.11318  0.86318
E295  E   0.87500  0.21005  0.96005
E296  E   0.87500  0.21005  0.96005
E297  E   0.87500  0.28995  0.46005
E298  E   0.87500  0.38682  0.36318
E299  E   0.87500  0.41985  0.80178
E300  E   0.87500  0.44822  0.66985
E301  E   0.87500  0.55178  0.83015
E302  E   0.87500  0.58015  0.69822
E303  E   0.87500  0.61318  0.13682
E304  E   0.87500  0.71005  0.03995
E305  E   0.87500  0.71005  0.03995
E306  E   0.87500  0.78995  0.53995
E307  E   0.87500  0.78995  0.53995
E308  E   0.87500  0.88682  0.63682
E309  E   0.87500  0.91985  0.19822
E310  E   0.87500  0.94822  0.33015
E311  E   0.87990  0.17678  0.30667
E312  E   0.87990  0.32322  0.80667
E313  E   0.87990  0.67678  0.69333
E314  E   0.87990  0.82322  0.19333
E315  E   0.88682  0.13682  0.12500
E316  E   0.88682  0.36318  0.62500
E317  E   0.88682  0.63682  0.87500
E318  E   0.88682  0.86318  0.37500
E319  E   0.91985  0.19822  0.87500
E320  E   0.91985  0.30178  0.37500
E321  E   0.91985  0.69822  0.12500
E322  E   0.91985  0.80178  0.62500
E323  E   0.92678  0.12990  0.94333
E324  E   0.92678  0.37010  0.44333
E325  E   0.92678  0.62990  0.05667
E326  E   0.92678  0.87010  0.55667
E327  E   0.94333  0.07322  0.37010
E328  E   0.94333  0.42678  0.87010
E329  E   0.94333  0.57322  0.62990
E330  E   0.94333  0.92678  0.12990
E331  E   0.94822  0.16985  0.37500
E332  E   0.94822  0.33015  0.87500
E333  E   0.94822  0.66985  0.62500
E334  E   0.94822  0.83015  0.12500
E335  E   0.96005  0.12500  0.28995
E336  E   0.96005  0.37500  0.78995
E337  E   0.96005  0.62500  0.71005
E338  E   0.96005  0.87500  0.21005
E339  E   0.96005  0.12500  0.28995
E340  E   0.96005  0.37500  0.78995
E341  E   0.96005  0.62500  0.71005
E342  E   0.96005  0.87500  0.21005
loop_
