data_ast-e_Fm-3m  hall_number: 523, V_con: 6, EC_con: 6
_audit_creation_date              2025-03-05
_audit_creation_method            'MOFbuilder_1.0'
_symmetry_space_group_name_H-M    'P1'
_symmetry_Int_Tables_number       1
_symmetry_cell_setting            triclinic
loop_
_symmetry_equiv_pos_as_xyz
  x,y,z
_cell_length_a                    51.8545
_cell_length_b                    51.8545
_cell_length_c                    51.8545
_cell_angle_alpha                 90.0
_cell_angle_beta                  90.0
_cell_angle_gamma                 90.0
loop_
_atom_site_label
_atom_site_type_symbol
_atom_site_fract_x
_atom_site_fract_y
_atom_site_fract_z
V1    V   0.00000  0.13636  0.13636
V2    V   0.00000  0.13636  0.86364
V3    V   0.00000  0.36364  0.36364
V4    V   0.00000  0.36364  0.63636
V5    V   0.00000  0.63636  0.36364
V6    V   0.00000  0.63636  0.63636
V7    V   0.00000  0.86364  0.13636
V8    V   0.00000  0.86364  0.86364
V9    V   0.13636  0.00000  0.13636
V10   V   0.13636  0.00000  0.86364
V11   V   0.13636  0.13636  0.00000
V12   V   0.13636  0.36364  0.50000
V13   V   0.13636  0.50000  0.36364
V14   V   0.13636  0.50000  0.63636
V15   V   0.13636  0.63636  0.50000
V16   V   0.13636  0.86364  0.00000
V17   V   0.36364  0.00000  0.36364
V18   V   0.36364  0.00000  0.63636
V19   V   0.36364  0.13636  0.50000
V20   V   0.36364  0.36364  0.00000
V21   V   0.36364  0.50000  0.13636
V22   V   0.36364  0.50000  0.86364
V23   V   0.36364  0.63636  0.00000
V24   V   0.36364  0.86364  0.50000
V25   V   0.50000  0.13636  0.36364
V26   V   0.50000  0.13636  0.63636
V27   V   0.50000  0.36364  0.13636
V28   V   0.50000  0.36364  0.86364
V29   V   0.50000  0.63636  0.13636
V30   V   0.50000  0.63636  0.86364
V31   V   0.50000  0.86364  0.36364
V32   V   0.50000  0.86364  0.63636
V33   V   0.63636  0.00000  0.36364
V34   V   0.63636  0.00000  0.63636
V35   V   0.63636  0.13636  0.50000
V36   V   0.63636  0.36364  0.00000
V37   V   0.63636  0.50000  0.13636
V38   V   0.63636  0.50000  0.86364
V39   V   0.63636  0.63636  0.00000
V40   V   0.63636  0.86364  0.50000
V41   V   0.86364  0.00000  0.13636
V42   V   0.86364  0.00000  0.86364
V43   V   0.86364  0.13636  0.00000
V44   V   0.86364  0.36364  0.50000
V45   V   0.86364  0.50000  0.36364
V46   V   0.86364  0.50000  0.63636
V47   V   0.86364  0.63636  0.50000
V48   V   0.86364  0.86364  0.00000
EC1    EC   0.18182  0.18182  0.18182
EC2    EC   0.18182  0.18182  0.81818
EC3    EC   0.18182  0.31818  0.31818
EC4    EC   0.18182  0.31818  0.68182
EC5    EC   0.18182  0.68182  0.31818
EC6    EC   0.18182  0.68182  0.68182
EC7    EC   0.18182  0.81818  0.18182
EC8    EC   0.18182  0.81818  0.81818
EC9    EC   0.31818  0.18182  0.31818
EC10   EC   0.31818  0.18182  0.68182
EC11   EC   0.31818  0.31818  0.18182
EC12   EC   0.31818  0.31818  0.81818
EC13   EC   0.31818  0.68182  0.18182
EC14   EC   0.31818  0.68182  0.81818
EC15   EC   0.31818  0.81818  0.31818
EC16   EC   0.31818  0.81818  0.68182
EC17   EC   0.68182  0.18182  0.31818
EC18   EC   0.68182  0.18182  0.68182
EC19   EC   0.68182  0.31818  0.18182
EC20   EC   0.68182  0.31818  0.81818
EC21   EC   0.68182  0.68182  0.18182
EC22   EC   0.68182  0.68182  0.81818
EC23   EC   0.68182  0.81818  0.31818
EC24   EC   0.68182  0.81818  0.68182
EC25   EC   0.81818  0.18182  0.18182
EC26   EC   0.81818  0.18182  0.81818
EC27   EC   0.81818  0.31818  0.31818
EC28   EC   0.81818  0.31818  0.68182
EC29   EC   0.81818  0.68182  0.31818
EC30   EC   0.81818  0.68182  0.68182
EC31   EC   0.81818  0.81818  0.18182
EC32   EC   0.81818  0.81818  0.81818
E1    E   0.06818  0.06818  0.13636
E2    E   0.06818  0.06818  0.86364
E3    E   0.06818  0.13636  0.06818
E4    E   0.06818  0.13636  0.93182
E5    E   0.06818  0.36364  0.43182
E6    E   0.06818  0.36364  0.56818
E7    E   0.06818  0.43182  0.36364
E8    E   0.06818  0.43182  0.63636
E9    E   0.06818  0.56818  0.36364
E10   E   0.06818  0.56818  0.63636
E11   E   0.06818  0.63636  0.43182
E12   E   0.06818  0.63636  0.56818
E13   E   0.06818  0.86364  0.06818
E14   E   0.06818  0.86364  0.93182
E15   E   0.06818  0.93182  0.13636
E16   E   0.06818  0.93182  0.86364
E17   E   0.09091  0.15909  0.15909
E18   E   0.09091  0.15909  0.84091
E19   E   0.09091  0.34091  0.34091
E20   E   0.09091  0.34091  0.65909
E21   E   0.09091  0.65909  0.34091
E22   E   0.09091  0.65909  0.65909
E23   E   0.09091  0.84091  0.15909
E24   E   0.09091  0.84091  0.84091
E25   E   0.13636  0.06818  0.06818
E26   E   0.13636  0.06818  0.93182
E27   E   0.13636  0.43182  0.43182
E28   E   0.13636  0.43182  0.56818
E29   E   0.13636  0.56818  0.43182
E30   E   0.13636  0.56818  0.56818
E31   E   0.13636  0.93182  0.06818
E32   E   0.13636  0.93182  0.93182
E33   E   0.15909  0.09091  0.15909
E34   E   0.15909  0.09091  0.84091
E35   E   0.15909  0.15909  0.09091
E36   E   0.15909  0.15909  0.90909
E37   E   0.15909  0.34091  0.40909
E38   E   0.15909  0.34091  0.59091
E39   E   0.15909  0.40909  0.34091
E40   E   0.15909  0.40909  0.65909
E41   E   0.15909  0.59091  0.34091
E42   E   0.15909  0.59091  0.65909
E43   E   0.15909  0.65909  0.40909
E44   E   0.15909  0.65909  0.59091
E45   E   0.15909  0.84091  0.09091
E46   E   0.15909  0.84091  0.90909
E47   E   0.15909  0.90909  0.15909
E48   E   0.15909  0.90909  0.84091
E49   E   0.18182  0.25000  0.25000
E50   E   0.18182  0.25000  0.75000
E51   E   0.18182  0.75000  0.25000
E52   E   0.18182  0.75000  0.75000
E53   E   0.25000  0.18182  0.25000
E54   E   0.25000  0.18182  0.75000
E55   E   0.25000  0.25000  0.18182
E56   E   0.25000  0.25000  0.31818
E57   E   0.25000  0.25000  0.68182
E58   E   0.25000  0.25000  0.81818
E59   E   0.25000  0.31818  0.25000
E60   E   0.25000  0.31818  0.75000
E61   E   0.25000  0.68182  0.25000
E62   E   0.25000  0.68182  0.75000
E63   E   0.25000  0.75000  0.18182
E64   E   0.25000  0.75000  0.31818
E65   E   0.25000  0.75000  0.68182
E66   E   0.25000  0.75000  0.81818
E67   E   0.25000  0.81818  0.25000
E68   E   0.25000  0.81818  0.75000
E69   E   0.31818  0.25000  0.25000
E70   E   0.31818  0.25000  0.75000
E71   E   0.31818  0.75000  0.25000
E72   E   0.31818  0.75000  0.75000
E73   E   0.34091  0.09091  0.34091
E74   E   0.34091  0.09091  0.65909
E75   E   0.34091  0.15909  0.40909
E76   E   0.34091  0.15909  0.59091
E77   E   0.34091  0.34091  0.09091
E78   E   0.34091  0.34091  0.90909
E79   E   0.34091  0.40909  0.15909
E80   E   0.34091  0.40909  0.84091
E81   E   0.34091  0.59091  0.15909
E82   E   0.34091  0.59091  0.84091
E83   E   0.34091  0.65909  0.09091
E84   E   0.34091  0.65909  0.90909
E85   E   0.34091  0.84091  0.40909
E86   E   0.34091  0.84091  0.59091
E87   E   0.34091  0.90909  0.34091
E88   E   0.34091  0.90909  0.65909
E89   E   0.36364  0.06818  0.43182
E90   E   0.36364  0.06818  0.56818
E91   E   0.36364  0.43182  0.06818
E92   E   0.36364  0.43182  0.93182
E93   E   0.36364  0.56818  0.06818
E94   E   0.36364  0.56818  0.93182
E95   E   0.36364  0.93182  0.43182
E96   E   0.36364  0.93182  0.56818
E97   E   0.40909  0.15909  0.34091
E98   E   0.40909  0.15909  0.65909
E99   E   0.40909  0.34091  0.15909
E100  E   0.40909  0.34091  0.84091
E101  E   0.40909  0.65909  0.15909
E102  E   0.40909  0.65909  0.84091
E103  E   0.40909  0.84091  0.34091
E104  E   0.40909  0.84091  0.65909
E105  E   0.43182  0.06818  0.36364
E106  E   0.43182  0.06818  0.63636
E107  E   0.43182  0.13636  0.43182
E108  E   0.43182  0.13636  0.56818
E109  E   0.43182  0.36364  0.06818
E110  E   0.43182  0.36364  0.93182
E111  E   0.43182  0.43182  0.13636
E112  E   0.43182  0.43182  0.86364
E113  E   0.43182  0.56818  0.13636
E114  E   0.43182  0.56818  0.86364
E115  E   0.43182  0.63636  0.06818
E116  E   0.43182  0.63636  0.93182
E117  E   0.43182  0.86364  0.43182
E118  E   0.43182  0.86364  0.56818
E119  E   0.43182  0.93182  0.36364
E120  E   0.43182  0.93182  0.63636
E121  E   0.56818  0.06818  0.36364
E122  E   0.56818  0.06818  0.63636
E123  E   0.56818  0.13636  0.43182
E124  E   0.56818  0.13636  0.56818
E125  E   0.56818  0.36364  0.06818
E126  E   0.56818  0.36364  0.93182
E127  E   0.56818  0.43182  0.13636
E128  E   0.56818  0.43182  0.86364
E129  E   0.56818  0.56818  0.13636
E130  E   0.56818  0.56818  0.86364
E131  E   0.56818  0.63636  0.06818
E132  E   0.56818  0.63636  0.93182
E133  E   0.56818  0.86364  0.43182
E134  E   0.56818  0.86364  0.56818
E135  E   0.56818  0.93182  0.36364
E136  E   0.56818  0.93182  0.63636
E137  E   0.59091  0.15909  0.34091
E138  E   0.59091  0.15909  0.65909
E139  E   0.59091  0.34091  0.15909
E140  E   0.59091  0.34091  0.84091
E141  E   0.59091  0.65909  0.15909
E142  E   0.59091  0.65909  0.84091
E143  E   0.59091  0.84091  0.34091
E144  E   0.59091  0.84091  0.65909
E145  E   0.63636  0.06818  0.43182
E146  E   0.63636  0.06818  0.56818
E147  E   0.63636  0.43182  0.06818
E148  E   0.63636  0.43182  0.93182
E149  E   0.63636  0.56818  0.06818
E150  E   0.63636  0.56818  0.93182
E151  E   0.63636  0.93182  0.43182
E152  E   0.63636  0.93182  0.56818
E153  E   0.65909  0.09091  0.34091
E154  E   0.65909  0.09091  0.65909
E155  E   0.65909  0.15909  0.40909
E156  E   0.65909  0.15909  0.59091
E157  E   0.65909  0.34091  0.09091
E158  E   0.65909  0.34091  0.90909
E159  E   0.65909  0.40909  0.15909
E160  E   0.65909  0.40909  0.84091
E161  E   0.65909  0.59091  0.15909
E162  E   0.65909  0.59091  0.84091
E163  E   0.65909  0.65909  0.09091
E164  E   0.65909  0.65909  0.90909
E165  E   0.65909  0.84091  0.40909
E166  E   0.65909  0.84091  0.59091
E167  E   0.65909  0.90909  0.34091
E168  E   0.65909  0.90909  0.65909
E169  E   0.68182  0.25000  0.25000
E170  E   0.68182  0.25000  0.75000
E171  E   0.68182  0.75000  0.25000
E172  E   0.68182  0.75000  0.75000
E173  E   0.75000  0.18182  0.25000
E174  E   0.75000  0.18182  0.75000
E175  E   0.75000  0.25000  0.18182
E176  E   0.75000  0.25000  0.31818
E177  E   0.75000  0.25000  0.68182
E178  E   0.75000  0.25000  0.81818
E179  E   0.75000  0.31818  0.25000
E180  E   0.75000  0.31818  0.75000
E181  E   0.75000  0.68182  0.25000
E182  E   0.75000  0.68182  0.75000
E183  E   0.75000  0.75000  0.18182
E184  E   0.75000  0.75000  0.31818
E185  E   0.75000  0.75000  0.68182
E186  E   0.75000  0.75000  0.81818
E187  E   0.75000  0.81818  0.25000
E188  E   0.75000  0.81818  0.75000
E189  E   0.81818  0.25000  0.25000
E190  E   0.81818  0.25000  0.75000
E191  E   0.81818  0.75000  0.25000
E192  E   0.81818  0.75000  0.75000
E193  E   0.84091  0.09091  0.15909
E194  E   0.84091  0.09091  0.84091
E195  E   0.84091  0.15909  0.09091
E196  E   0.84091  0.15909  0.90909
E197  E   0.84091  0.34091  0.40909
E198  E   0.84091  0.34091  0.59091
E199  E   0.84091  0.40909  0.34091
E200  E   0.84091  0.40909  0.65909
E201  E   0.84091  0.59091  0.34091
E202  E   0.84091  0.59091  0.65909
E203  E   0.84091  0.65909  0.40909
E204  E   0.84091  0.65909  0.59091
E205  E   0.84091  0.84091  0.09091
E206  E   0.84091  0.84091  0.90909
E207  E   0.84091  0.90909  0.15909
E208  E   0.84091  0.90909  0.84091
E209  E   0.86364  0.06818  0.06818
E210  E   0.86364  0.06818  0.93182
E211  E   0.86364  0.43182  0.43182
E212  E   0.86364  0.43182  0.56818
E213  E   0.86364  0.56818  0.43182
E214  E   0.86364  0.56818  0.56818
E215  E   0.86364  0.93182  0.06818
E216  E   0.86364  0.93182  0.93182
E217  E   0.90909  0.15909  0.15909
E218  E   0.90909  0.15909  0.84091
E219  E   0.90909  0.34091  0.34091
E220  E   0.90909  0.34091  0.65909
E221  E   0.90909  0.65909  0.34091
E222  E   0.90909  0.65909  0.65909
E223  E   0.90909  0.84091  0.15909
E224  E   0.90909  0.84091  0.84091
E225  E   0.93182  0.06818  0.13636
E226  E   0.93182  0.06818  0.86364
E227  E   0.93182  0.13636  0.06818
E228  E   0.93182  0.13636  0.93182
E229  E   0.93182  0.36364  0.43182
E230  E   0.93182  0.36364  0.56818
E231  E   0.93182  0.43182  0.36364
E232  E   0.93182  0.43182  0.63636
E233  E   0.93182  0.56818  0.36364
E234  E   0.93182  0.56818  0.63636
E235  E   0.93182  0.63636  0.43182
E236  E   0.93182  0.63636  0.56818
E237  E   0.93182  0.86364  0.06818
E238  E   0.93182  0.86364  0.93182
E239  E   0.93182  0.93182  0.13636
E240  E   0.93182  0.93182  0.86364
loop_
