data_asv_P4/mmm  hall_number: 400, V_con: 4, EC_con: 4
_audit_creation_date              2025-03-05
_audit_creation_method            'MOFbuilder_1.0'
_symmetry_space_group_name_H-M    'P1'
_symmetry_Int_Tables_number       1
_symmetry_cell_setting            triclinic
loop_
_symmetry_equiv_pos_as_xyz
  x,y,z
_cell_length_a                    30.4469
_cell_length_b                    30.4469
_cell_length_c                    21.5826
_cell_angle_alpha                 90.0
_cell_angle_beta                  90.0
_cell_angle_gamma                 90.0
loop_
_atom_site_label
_atom_site_type_symbol
_atom_site_fract_x
_atom_site_fract_y
_atom_site_fract_z
V1    V   0.00000  0.50000  0.00000
V2    V   0.50000  0.00000  0.00000
EC1    EC   0.26776  0.50000  0.26833
EC2    EC   0.26776  0.50000  0.73167
EC3    EC   0.50000  0.26776  0.26833
EC4    EC   0.50000  0.26776  0.73167
EC5    EC   0.50000  0.73224  0.26833
EC6    EC   0.50000  0.73224  0.73167
EC7    EC   0.73224  0.50000  0.26833
EC8    EC   0.73224  0.50000  0.73167
E1    E   0.13388  0.50000  0.13417
E2    E   0.13388  0.50000  0.86583
E3    E   0.26776  0.50000  0.50000
E4    E   0.38388  0.38388  0.26833
E5    E   0.38388  0.38388  0.73167
E6    E   0.38388  0.61612  0.26833
E7    E   0.38388  0.61612  0.73167
E8    E   0.50000  0.13388  0.13417
E9    E   0.50000  0.13388  0.86583
E10   E   0.50000  0.26776  0.50000
E11   E   0.50000  0.73224  0.50000
E12   E   0.50000  0.86612  0.13417
E13   E   0.50000  0.86612  0.86583
E14   E   0.61612  0.38388  0.26833
E15   E   0.61612  0.38388  0.73167
E16   E   0.61612  0.61612  0.26833
E17   E   0.61612  0.61612  0.73167
E18   E   0.73224  0.50000  0.50000
E19   E   0.86612  0.50000  0.13417
E20   E   0.86612  0.50000  0.86583
loop_
