data_att_Pmma  hall_number: 239, V_con: 4, EC_con: 4
_audit_creation_date              2025-03-05
_audit_creation_method            'MOFbuilder_1.0'
_symmetry_space_group_name_H-M    'P1'
_symmetry_Int_Tables_number       1
_symmetry_cell_setting            triclinic
loop_
_symmetry_equiv_pos_as_xyz
  x,y,z
_cell_length_a                    33.0155
_cell_length_b                    24.9604
_cell_length_c                    28.459
_cell_angle_alpha                 90.0
_cell_angle_beta                  90.0
_cell_angle_gamma                 90.0
loop_
_atom_site_label
_atom_site_type_symbol
_atom_site_fract_x
_atom_site_fract_y
_atom_site_fract_z
V1    V   0.09856  0.20032  0.36660
V2    V   0.09856  0.79968  0.36660
V3    V   0.40144  0.20032  0.36660
V4    V   0.40144  0.79968  0.36660
V5    V   0.59856  0.20032  0.63340
V6    V   0.59856  0.79968  0.63340
V7    V   0.90144  0.20032  0.63340
V8    V   0.90144  0.79968  0.63340
EC1    EC   0.09856  0.50000  0.13340
EC2    EC   0.40144  0.50000  0.13340
EC3    EC   0.59856  0.50000  0.86660
EC4    EC   0.90144  0.50000  0.86660
E1    E   0.00000  0.20032  0.50000
E2    E   0.00000  0.50000  0.00000
E3    E   0.00000  0.79968  0.50000
E4    E   0.09856  0.00000  0.36660
E5    E   0.09856  0.35016  0.25000
E6    E   0.09856  0.64984  0.25000
E7    E   0.25000  0.20032  0.36660
E8    E   0.25000  0.50000  0.13340
E9    E   0.25000  0.79968  0.36660
E10   E   0.40144  0.00000  0.36660
E11   E   0.40144  0.35016  0.25000
E12   E   0.40144  0.64984  0.25000
E13   E   0.50000  0.20032  0.50000
E14   E   0.50000  0.50000  0.00000
E15   E   0.50000  0.79968  0.50000
E16   E   0.59856  0.00000  0.63340
E17   E   0.59856  0.35016  0.75000
E18   E   0.59856  0.64984  0.75000
E19   E   0.75000  0.20032  0.63340
E20   E   0.75000  0.50000  0.86660
E21   E   0.75000  0.79968  0.63340
E22   E   0.90144  0.00000  0.63340
E23   E   0.90144  0.35016  0.75000
E24   E   0.90144  0.64984  0.75000
loop_
