data_baa-e_I-42d  hall_number: 399, V_con: 6, EC_con: 6
_audit_creation_date              2025-03-05
_audit_creation_method            'MOFbuilder_1.0'
_symmetry_space_group_name_H-M    'P1'
_symmetry_Int_Tables_number       1
_symmetry_cell_setting            triclinic
loop_
_symmetry_equiv_pos_as_xyz
  x,y,z
_cell_length_a                    37.3437
_cell_length_b                    37.3437
_cell_length_c                    19.5131
_cell_angle_alpha                 90.0
_cell_angle_beta                  90.0
_cell_angle_gamma                 90.0
loop_
_atom_site_label
_atom_site_type_symbol
_atom_site_fract_x
_atom_site_fract_y
_atom_site_fract_z
V1    V   0.06065  0.61937  0.56881
V2    V   0.06065  0.88063  0.68119
V3    V   0.11937  0.06065  0.31881
V4    V   0.11937  0.43935  0.93119
V5    V   0.38063  0.06065  0.43119
V6    V   0.38063  0.43935  0.81881
V7    V   0.43935  0.61937  0.18119
V8    V   0.43935  0.88063  0.06881
V9    V   0.56065  0.11937  0.06881
V10   V   0.56065  0.38063  0.18119
V11   V   0.61937  0.56065  0.81881
V12   V   0.61937  0.93935  0.43119
V13   V   0.88063  0.56065  0.93119
V14   V   0.88063  0.93935  0.31881
V15   V   0.93935  0.11937  0.68119
V16   V   0.93935  0.38063  0.56881
EC1    EC   0.22064  0.25000  0.62500
EC2    EC   0.25000  0.72064  0.87500
EC3    EC   0.25000  0.77936  0.37500
EC4    EC   0.27936  0.25000  0.12500
EC5    EC   0.72064  0.75000  0.12500
EC6    EC   0.75000  0.22064  0.37500
EC7    EC   0.75000  0.27936  0.87500
EC8    EC   0.77936  0.75000  0.62500
E1    E   0.00000  0.00000  0.31881
E2    E   0.00000  0.00000  0.68119
E3    E   0.00000  0.50000  0.56881
E4    E   0.00000  0.50000  0.93119
E5    E   0.02936  0.09001  0.50000
E6    E   0.02936  0.40999  0.75000
E7    E   0.06065  0.75000  0.62500
E8    E   0.09001  0.52936  0.75000
E9    E   0.09001  0.97064  0.50000
E10   E   0.15532  0.67000  0.72191
E11   E   0.15532  0.69937  0.47191
E12   E   0.15532  0.80063  0.77809
E13   E   0.15532  0.83000  0.52809
E14   E   0.17000  0.15532  0.47191
E15   E   0.17000  0.34468  0.77809
E16   E   0.19937  0.15532  0.22191
E17   E   0.19937  0.34468  0.02809
E18   E   0.25000  0.06065  0.37500
E19   E   0.25000  0.25000  0.37500
E20   E   0.25000  0.25000  0.87500
E21   E   0.25000  0.43935  0.87500
E22   E   0.25000  0.75000  0.12500
E23   E   0.25000  0.75000  0.62500
E24   E   0.30063  0.15532  0.52809
E25   E   0.30063  0.34468  0.72191
E26   E   0.33000  0.15532  0.27809
E27   E   0.33000  0.34468  0.97191
E28   E   0.34468  0.67000  0.02809
E29   E   0.34468  0.69937  0.27809
E30   E   0.34468  0.80063  0.97191
E31   E   0.34468  0.83000  0.22191
E32   E   0.40999  0.52936  0.00000
E33   E   0.40999  0.97064  0.25000
E34   E   0.43935  0.75000  0.12500
E35   E   0.47064  0.09001  0.25000
E36   E   0.47064  0.40999  0.00000
E37   E   0.50000  0.00000  0.06881
E38   E   0.50000  0.00000  0.43119
E39   E   0.50000  0.50000  0.18119
E40   E   0.50000  0.50000  0.81881
E41   E   0.52936  0.59001  0.00000
E42   E   0.52936  0.90999  0.25000
E43   E   0.56065  0.25000  0.12500
E44   E   0.59001  0.02936  0.25000
E45   E   0.59001  0.47064  0.00000
E46   E   0.65532  0.17000  0.22191
E47   E   0.65532  0.19937  0.97191
E48   E   0.65532  0.30063  0.27809
E49   E   0.65532  0.33000  0.02809
E50   E   0.67000  0.65532  0.97191
E51   E   0.67000  0.84468  0.27809
E52   E   0.69937  0.65532  0.72191
E53   E   0.69937  0.84468  0.52809
E54   E   0.75000  0.25000  0.12500
E55   E   0.75000  0.25000  0.62500
E56   E   0.75000  0.56065  0.87500
E57   E   0.75000  0.75000  0.37500
E58   E   0.75000  0.75000  0.87500
E59   E   0.75000  0.93935  0.37500
E60   E   0.80063  0.65532  0.02809
E61   E   0.80063  0.84468  0.22191
E62   E   0.83000  0.65532  0.77809
E63   E   0.83000  0.84468  0.47191
E64   E   0.84468  0.17000  0.52809
E65   E   0.84468  0.19937  0.77809
E66   E   0.84468  0.30063  0.47191
E67   E   0.84468  0.33000  0.72191
E68   E   0.90999  0.02936  0.50000
E69   E   0.90999  0.47064  0.75000
E70   E   0.93935  0.25000  0.62500
E71   E   0.97064  0.59001  0.75000
E72   E   0.97064  0.90999  0.50000
loop_
