data_baj_Im-3m  hall_number: 529, V_con: 4, EC_con: 4
_audit_creation_date              2025-03-05
_audit_creation_method            'MOFbuilder_1.0'
_symmetry_space_group_name_H-M    'P1'
_symmetry_Int_Tables_number       1
_symmetry_cell_setting            triclinic
loop_
_symmetry_equiv_pos_as_xyz
  x,y,z
_cell_length_a                    88.2843
_cell_length_b                    88.2843
_cell_length_c                    88.2843
_cell_angle_alpha                 90.0
_cell_angle_beta                  90.0
_cell_angle_gamma                 90.0
loop_
_atom_site_label
_atom_site_type_symbol
_atom_site_fract_x
_atom_site_fract_y
_atom_site_fract_z
V1    V   0.05664  0.25000  0.44336
V2    V   0.05664  0.25000  0.55664
V3    V   0.05664  0.44336  0.25000
V4    V   0.05664  0.44336  0.75000
V5    V   0.05664  0.55664  0.25000
V6    V   0.05664  0.55664  0.75000
V7    V   0.05664  0.75000  0.44336
V8    V   0.05664  0.75000  0.55664
V9    V   0.05664  0.25000  0.44336
V10   V   0.05664  0.25000  0.55664
V11   V   0.05664  0.44336  0.25000
V12   V   0.05664  0.44336  0.75000
V13   V   0.05664  0.55664  0.25000
V14   V   0.05664  0.55664  0.75000
V15   V   0.05664  0.75000  0.44336
V16   V   0.05664  0.75000  0.55664
V17   V   0.25000  0.05664  0.44336
V18   V   0.25000  0.05664  0.55664
V19   V   0.25000  0.05664  0.44336
V20   V   0.25000  0.05664  0.55664
V21   V   0.25000  0.44336  0.05664
V22   V   0.25000  0.44336  0.05664
V23   V   0.25000  0.44336  0.94336
V24   V   0.25000  0.55664  0.05664
V25   V   0.25000  0.55664  0.05664
V26   V   0.25000  0.55664  0.94336
V27   V   0.25000  0.94336  0.44336
V28   V   0.25000  0.94336  0.55664
V29   V   0.44336  0.05664  0.25000
V30   V   0.44336  0.05664  0.75000
V31   V   0.44336  0.05664  0.25000
V32   V   0.44336  0.05664  0.75000
V33   V   0.44336  0.25000  0.05664
V34   V   0.44336  0.25000  0.05664
V35   V   0.44336  0.25000  0.94336
V36   V   0.44336  0.75000  0.05664
V37   V   0.44336  0.75000  0.05664
V38   V   0.44336  0.75000  0.94336
V39   V   0.44336  0.94336  0.25000
V40   V   0.44336  0.94336  0.75000
V41   V   0.55664  0.05664  0.25000
V42   V   0.55664  0.05664  0.75000
V43   V   0.55664  0.05664  0.25000
V44   V   0.55664  0.05664  0.75000
V45   V   0.55664  0.25000  0.05664
V46   V   0.55664  0.25000  0.05664
V47   V   0.55664  0.25000  0.94336
V48   V   0.55664  0.75000  0.05664
V49   V   0.55664  0.75000  0.05664
V50   V   0.55664  0.75000  0.94336
V51   V   0.55664  0.94336  0.25000
V52   V   0.55664  0.94336  0.75000
V53   V   0.75000  0.05664  0.44336
V54   V   0.75000  0.05664  0.55664
V55   V   0.75000  0.05664  0.44336
V56   V   0.75000  0.05664  0.55664
V57   V   0.75000  0.44336  0.05664
V58   V   0.75000  0.44336  0.05664
V59   V   0.75000  0.44336  0.94336
V60   V   0.75000  0.55664  0.05664
V61   V   0.75000  0.55664  0.05664
V62   V   0.75000  0.55664  0.94336
V63   V   0.75000  0.94336  0.44336
V64   V   0.75000  0.94336  0.55664
V65   V   0.94336  0.25000  0.44336
V66   V   0.94336  0.25000  0.55664
V67   V   0.94336  0.44336  0.25000
V68   V   0.94336  0.44336  0.75000
V69   V   0.94336  0.55664  0.25000
V70   V   0.94336  0.55664  0.75000
V71   V   0.94336  0.75000  0.44336
V72   V   0.94336  0.75000  0.55664
EC1    EC   0.05663  0.36327  0.44336
EC2    EC   0.05663  0.36327  0.55664
EC3    EC   0.05663  0.44336  0.36327
EC4    EC   0.05663  0.44336  0.63673
EC5    EC   0.05663  0.55664  0.36327
EC6    EC   0.05663  0.55664  0.63673
EC7    EC   0.05663  0.63673  0.44336
EC8    EC   0.05663  0.63673  0.55664
EC9    EC   0.05664  0.13673  0.44337
EC10   EC   0.05664  0.13673  0.55663
EC11   EC   0.05664  0.44337  0.13673
EC12   EC   0.05664  0.44337  0.86327
EC13   EC   0.05664  0.55663  0.13673
EC14   EC   0.05664  0.55663  0.86327
EC15   EC   0.05664  0.86327  0.44337
EC16   EC   0.05664  0.86327  0.55663
EC17   EC   0.13673  0.05664  0.44337
EC18   EC   0.13673  0.05664  0.55663
EC19   EC   0.13673  0.44337  0.05664
EC20   EC   0.13673  0.44337  0.94336
EC21   EC   0.13673  0.55663  0.05664
EC22   EC   0.13673  0.55663  0.94336
EC23   EC   0.13673  0.94336  0.44337
EC24   EC   0.13673  0.94336  0.55663
EC25   EC   0.36327  0.05663  0.44336
EC26   EC   0.36327  0.05663  0.55664
EC27   EC   0.36327  0.44336  0.05663
EC28   EC   0.36327  0.44336  0.94337
EC29   EC   0.36327  0.55664  0.05663
EC30   EC   0.36327  0.55664  0.94337
EC31   EC   0.36327  0.94337  0.44336
EC32   EC   0.36327  0.94337  0.55664
EC33   EC   0.44336  0.05663  0.36327
EC34   EC   0.44336  0.05663  0.63673
EC35   EC   0.44336  0.36327  0.05663
EC36   EC   0.44336  0.36327  0.94337
EC37   EC   0.44336  0.63673  0.05663
EC38   EC   0.44336  0.63673  0.94337
EC39   EC   0.44336  0.94337  0.36327
EC40   EC   0.44336  0.94337  0.63673
EC41   EC   0.44337  0.05664  0.13673
EC42   EC   0.44337  0.05664  0.86327
EC43   EC   0.44337  0.13673  0.05664
EC44   EC   0.44337  0.13673  0.94336
EC45   EC   0.44337  0.86327  0.05664
EC46   EC   0.44337  0.86327  0.94336
EC47   EC   0.44337  0.94336  0.13673
EC48   EC   0.44337  0.94336  0.86327
EC49   EC   0.55663  0.05664  0.13673
EC50   EC   0.55663  0.05664  0.86327
EC51   EC   0.55663  0.13673  0.05664
EC52   EC   0.55663  0.13673  0.94336
EC53   EC   0.55663  0.86327  0.05664
EC54   EC   0.55663  0.86327  0.94336
EC55   EC   0.55663  0.94336  0.13673
EC56   EC   0.55663  0.94336  0.86327
EC57   EC   0.55664  0.05663  0.36327
EC58   EC   0.55664  0.05663  0.63673
EC59   EC   0.55664  0.36327  0.05663
EC60   EC   0.55664  0.36327  0.94337
EC61   EC   0.55664  0.63673  0.05663
EC62   EC   0.55664  0.63673  0.94337
EC63   EC   0.55664  0.94337  0.36327
EC64   EC   0.55664  0.94337  0.63673
EC65   EC   0.63673  0.05663  0.44336
EC66   EC   0.63673  0.05663  0.55664
EC67   EC   0.63673  0.44336  0.05663
EC68   EC   0.63673  0.44336  0.94337
EC69   EC   0.63673  0.55664  0.05663
EC70   EC   0.63673  0.55664  0.94337
EC71   EC   0.63673  0.94337  0.44336
EC72   EC   0.63673  0.94337  0.55664
EC73   EC   0.86327  0.05664  0.44337
EC74   EC   0.86327  0.05664  0.55663
EC75   EC   0.86327  0.44337  0.05664
EC76   EC   0.86327  0.44337  0.94336
EC77   EC   0.86327  0.55663  0.05664
EC78   EC   0.86327  0.55663  0.94336
EC79   EC   0.86327  0.94336  0.44337
EC80   EC   0.86327  0.94336  0.55663
EC81   EC   0.94336  0.13673  0.44337
EC82   EC   0.94336  0.13673  0.55663
EC83   EC   0.94336  0.44337  0.13673
EC84   EC   0.94336  0.44337  0.86327
EC85   EC   0.94336  0.55663  0.13673
EC86   EC   0.94336  0.55663  0.86327
EC87   EC   0.94336  0.86327  0.44337
EC88   EC   0.94336  0.86327  0.55663
EC89   EC   0.94337  0.36327  0.44336
EC90   EC   0.94337  0.36327  0.55664
EC91   EC   0.94337  0.44336  0.36327
EC92   EC   0.94337  0.44336  0.63673
EC93   EC   0.94337  0.55664  0.36327
EC94   EC   0.94337  0.55664  0.63673
EC95   EC   0.94337  0.63673  0.44336
EC96   EC   0.94337  0.63673  0.55664
E1    E   0.00000  0.13673  0.44337
E2    E   0.00000  0.13673  0.55663
E3    E   0.00000  0.25000  0.44336
E4    E   0.00000  0.25000  0.55664
E5    E   0.00000  0.36327  0.44336
E6    E   0.00000  0.36327  0.55664
E7    E   0.00000  0.44336  0.25000
E8    E   0.00000  0.44336  0.36327
E9    E   0.00000  0.44336  0.63673
E10   E   0.00000  0.44336  0.75000
E11   E   0.00000  0.44337  0.13673
E12   E   0.00000  0.44337  0.86327
E13   E   0.00000  0.55663  0.13673
E14   E   0.00000  0.55663  0.86327
E15   E   0.00000  0.55664  0.25000
E16   E   0.00000  0.55664  0.36327
E17   E   0.00000  0.55664  0.63673
E18   E   0.00000  0.55664  0.75000
E19   E   0.00000  0.63673  0.44336
E20   E   0.00000  0.63673  0.55664
E21   E   0.00000  0.75000  0.44336
E22   E   0.00000  0.75000  0.55664
E23   E   0.00000  0.86327  0.44337
E24   E   0.00000  0.86327  0.55663
E25   E   0.05663  0.36327  0.50000
E26   E   0.05663  0.40332  0.40332
E27   E   0.05663  0.40332  0.59668
E28   E   0.05663  0.50000  0.36327
E29   E   0.05663  0.50000  0.63673
E30   E   0.05663  0.59668  0.40332
E31   E   0.05663  0.59668  0.59668
E32   E   0.05663  0.63673  0.50000
E33   E   0.05664  0.13673  0.50000
E34   E   0.05664  0.19336  0.44336
E35   E   0.05664  0.19336  0.55664
E36   E   0.05664  0.25000  0.50000
E37   E   0.05664  0.44336  0.19336
E38   E   0.05664  0.44336  0.80664
E39   E   0.05664  0.50000  0.13673
E40   E   0.05664  0.50000  0.25000
E41   E   0.05664  0.50000  0.75000
E42   E   0.05664  0.50000  0.86327
E43   E   0.05664  0.55664  0.19336
E44   E   0.05664  0.55664  0.80664
E45   E   0.05664  0.75000  0.50000
E46   E   0.05664  0.80664  0.44336
E47   E   0.05664  0.80664  0.55664
E48   E   0.05664  0.86327  0.50000
E49   E   0.05664  0.30664  0.44336
E50   E   0.05664  0.30664  0.55664
E51   E   0.05664  0.44336  0.30664
E52   E   0.05664  0.44336  0.69336
E53   E   0.05664  0.55664  0.30664
E54   E   0.05664  0.55664  0.69336
E55   E   0.05664  0.69336  0.44336
E56   E   0.05664  0.69336  0.55664
E57   E   0.09668  0.09668  0.44337
E58   E   0.09668  0.09668  0.55663
E59   E   0.09668  0.44337  0.09668
E60   E   0.09668  0.44337  0.90332
E61   E   0.09668  0.55663  0.09668
E62   E   0.09668  0.55663  0.90332
E63   E   0.09668  0.90332  0.44337
E64   E   0.09668  0.90332  0.55663
E65   E   0.13673  0.00000  0.44337
E66   E   0.13673  0.00000  0.55663
E67   E   0.13673  0.05664  0.50000
E68   E   0.13673  0.44337  0.00000
E69   E   0.13673  0.50000  0.05664
E70   E   0.13673  0.50000  0.94336
E71   E   0.13673  0.55663  0.00000
E72   E   0.13673  0.94336  0.50000
E73   E   0.19336  0.05664  0.44336
E74   E   0.19336  0.05664  0.55664
E75   E   0.19336  0.44336  0.05664
E76   E   0.19336  0.44336  0.94336
E77   E   0.19336  0.55664  0.05664
E78   E   0.19336  0.55664  0.94336
E79   E   0.19336  0.94336  0.44336
E80   E   0.19336  0.94336  0.55664
E81   E   0.25000  0.00000  0.44336
E82   E   0.25000  0.00000  0.55664
E83   E   0.25000  0.05664  0.50000
E84   E   0.25000  0.44336  0.00000
E85   E   0.25000  0.50000  0.05664
E86   E   0.25000  0.50000  0.94336
E87   E   0.25000  0.55664  0.00000
E88   E   0.25000  0.94336  0.50000
E89   E   0.30664  0.05664  0.44336
E90   E   0.30664  0.05664  0.55664
E91   E   0.30664  0.44336  0.05664
E92   E   0.30664  0.44336  0.94336
E93   E   0.30664  0.55664  0.05664
E94   E   0.30664  0.55664  0.94336
E95   E   0.30664  0.94336  0.44336
E96   E   0.30664  0.94336  0.55664
E97   E   0.36327  0.00000  0.44336
E98   E   0.36327  0.00000  0.55664
E99   E   0.36327  0.05663  0.50000
E100  E   0.36327  0.44336  0.00000
E101  E   0.36327  0.50000  0.05663
E102  E   0.36327  0.50000  0.94337
E103  E   0.36327  0.55664  0.00000
E104  E   0.36327  0.94337  0.50000
E105  E   0.40332  0.05663  0.40332
E106  E   0.40332  0.05663  0.59668
E107  E   0.40332  0.40332  0.05663
E108  E   0.40332  0.40332  0.94337
E109  E   0.40332  0.59668  0.05663
E110  E   0.40332  0.59668  0.94337
E111  E   0.40332  0.94337  0.40332
E112  E   0.40332  0.94337  0.59668
E113  E   0.44336  0.00000  0.25000
E114  E   0.44336  0.00000  0.36327
E115  E   0.44336  0.00000  0.63673
E116  E   0.44336  0.00000  0.75000
E117  E   0.44336  0.05664  0.19336
E118  E   0.44336  0.05664  0.80664
E119  E   0.44336  0.05664  0.30664
E120  E   0.44336  0.05664  0.69336
E121  E   0.44336  0.19336  0.05664
E122  E   0.44336  0.19336  0.94336
E123  E   0.44336  0.25000  0.00000
E124  E   0.44336  0.30664  0.05664
E125  E   0.44336  0.30664  0.94336
E126  E   0.44336  0.36327  0.00000
E127  E   0.44336  0.63673  0.00000
E128  E   0.44336  0.69336  0.05664
E129  E   0.44336  0.69336  0.94336
E130  E   0.44336  0.75000  0.00000
E131  E   0.44336  0.80664  0.05664
E132  E   0.44336  0.80664  0.94336
E133  E   0.44336  0.94336  0.19336
E134  E   0.44336  0.94336  0.30664
E135  E   0.44336  0.94336  0.69336
E136  E   0.44336  0.94336  0.80664
E137  E   0.44337  0.00000  0.13673
E138  E   0.44337  0.00000  0.86327
E139  E   0.44337  0.09668  0.09668
E140  E   0.44337  0.09668  0.90332
E141  E   0.44337  0.13673  0.00000
E142  E   0.44337  0.86327  0.00000
E143  E   0.44337  0.90332  0.09668
E144  E   0.44337  0.90332  0.90332
E145  E   0.50000  0.05663  0.36327
E146  E   0.50000  0.05663  0.63673
E147  E   0.50000  0.05664  0.13673
E148  E   0.50000  0.05664  0.25000
E149  E   0.50000  0.05664  0.75000
E150  E   0.50000  0.05664  0.86327
E151  E   0.50000  0.13673  0.05664
E152  E   0.50000  0.13673  0.94336
E153  E   0.50000  0.25000  0.05664
E154  E   0.50000  0.25000  0.94336
E155  E   0.50000  0.36327  0.05663
E156  E   0.50000  0.36327  0.94337
E157  E   0.50000  0.63673  0.05663
E158  E   0.50000  0.63673  0.94337
E159  E   0.50000  0.75000  0.05664
E160  E   0.50000  0.75000  0.94336
E161  E   0.50000  0.86327  0.05664
E162  E   0.50000  0.86327  0.94336
E163  E   0.50000  0.94336  0.13673
E164  E   0.50000  0.94336  0.25000
E165  E   0.50000  0.94336  0.75000
E166  E   0.50000  0.94336  0.86327
E167  E   0.50000  0.94337  0.36327
E168  E   0.50000  0.94337  0.63673
E169  E   0.55663  0.00000  0.13673
E170  E   0.55663  0.00000  0.86327
E171  E   0.55663  0.09668  0.09668
E172  E   0.55663  0.09668  0.90332
E173  E   0.55663  0.13673  0.00000
E174  E   0.55663  0.86327  0.00000
E175  E   0.55663  0.90332  0.09668
E176  E   0.55663  0.90332  0.90332
E177  E   0.55664  0.00000  0.25000
E178  E   0.55664  0.00000  0.36327
E179  E   0.55664  0.00000  0.63673
E180  E   0.55664  0.00000  0.75000
E181  E   0.55664  0.05664  0.19336
E182  E   0.55664  0.05664  0.80664
E183  E   0.55664  0.05664  0.30664
E184  E   0.55664  0.05664  0.69336
E185  E   0.55664  0.19336  0.05664
E186  E   0.55664  0.19336  0.94336
E187  E   0.55664  0.25000  0.00000
E188  E   0.55664  0.30664  0.05664
E189  E   0.55664  0.30664  0.94336
E190  E   0.55664  0.36327  0.00000
E191  E   0.55664  0.63673  0.00000
E192  E   0.55664  0.69336  0.05664
E193  E   0.55664  0.69336  0.94336
E194  E   0.55664  0.75000  0.00000
E195  E   0.55664  0.80664  0.05664
E196  E   0.55664  0.80664  0.94336
E197  E   0.55664  0.94336  0.19336
E198  E   0.55664  0.94336  0.30664
E199  E   0.55664  0.94336  0.69336
E200  E   0.55664  0.94336  0.80664
E201  E   0.59668  0.05663  0.40332
E202  E   0.59668  0.05663  0.59668
E203  E   0.59668  0.40332  0.05663
E204  E   0.59668  0.40332  0.94337
E205  E   0.59668  0.59668  0.05663
E206  E   0.59668  0.59668  0.94337
E207  E   0.59668  0.94337  0.40332
E208  E   0.59668  0.94337  0.59668
E209  E   0.63673  0.00000  0.44336
E210  E   0.63673  0.00000  0.55664
E211  E   0.63673  0.05663  0.50000
E212  E   0.63673  0.44336  0.00000
E213  E   0.63673  0.50000  0.05663
E214  E   0.63673  0.50000  0.94337
E215  E   0.63673  0.55664  0.00000
E216  E   0.63673  0.94337  0.50000
E217  E   0.69336  0.05664  0.44336
E218  E   0.69336  0.05664  0.55664
E219  E   0.69336  0.44336  0.05664
E220  E   0.69336  0.44336  0.94336
E221  E   0.69336  0.55664  0.05664
E222  E   0.69336  0.55664  0.94336
E223  E   0.69336  0.94336  0.44336
E224  E   0.69336  0.94336  0.55664
E225  E   0.75000  0.00000  0.44336
E226  E   0.75000  0.00000  0.55664
E227  E   0.75000  0.05664  0.50000
E228  E   0.75000  0.44336  0.00000
E229  E   0.75000  0.50000  0.05664
E230  E   0.75000  0.50000  0.94336
E231  E   0.75000  0.55664  0.00000
E232  E   0.75000  0.94336  0.50000
E233  E   0.80664  0.05664  0.44336
E234  E   0.80664  0.05664  0.55664
E235  E   0.80664  0.44336  0.05664
E236  E   0.80664  0.44336  0.94336
E237  E   0.80664  0.55664  0.05664
E238  E   0.80664  0.55664  0.94336
E239  E   0.80664  0.94336  0.44336
E240  E   0.80664  0.94336  0.55664
E241  E   0.86327  0.00000  0.44337
E242  E   0.86327  0.00000  0.55663
E243  E   0.86327  0.05664  0.50000
E244  E   0.86327  0.44337  0.00000
E245  E   0.86327  0.50000  0.05664
E246  E   0.86327  0.50000  0.94336
E247  E   0.86327  0.55663  0.00000
E248  E   0.86327  0.94336  0.50000
E249  E   0.90332  0.09668  0.44337
E250  E   0.90332  0.09668  0.55663
E251  E   0.90332  0.44337  0.09668
E252  E   0.90332  0.44337  0.90332
E253  E   0.90332  0.55663  0.09668
E254  E   0.90332  0.55663  0.90332
E255  E   0.90332  0.90332  0.44337
E256  E   0.90332  0.90332  0.55663
E257  E   0.94336  0.13673  0.50000
E258  E   0.94336  0.19336  0.44336
E259  E   0.94336  0.19336  0.55664
E260  E   0.94336  0.25000  0.50000
E261  E   0.94336  0.30664  0.44336
E262  E   0.94336  0.30664  0.55664
E263  E   0.94336  0.44336  0.19336
E264  E   0.94336  0.44336  0.30664
E265  E   0.94336  0.44336  0.69336
E266  E   0.94336  0.44336  0.80664
E267  E   0.94336  0.50000  0.13673
E268  E   0.94336  0.50000  0.25000
E269  E   0.94336  0.50000  0.75000
E270  E   0.94336  0.50000  0.86327
E271  E   0.94336  0.55664  0.19336
E272  E   0.94336  0.55664  0.30664
E273  E   0.94336  0.55664  0.69336
E274  E   0.94336  0.55664  0.80664
E275  E   0.94336  0.69336  0.44336
E276  E   0.94336  0.69336  0.55664
E277  E   0.94336  0.75000  0.50000
E278  E   0.94336  0.80664  0.44336
E279  E   0.94336  0.80664  0.55664
E280  E   0.94336  0.86327  0.50000
E281  E   0.94337  0.36327  0.50000
E282  E   0.94337  0.40332  0.40332
E283  E   0.94337  0.40332  0.59668
E284  E   0.94337  0.50000  0.36327
E285  E   0.94337  0.50000  0.63673
E286  E   0.94337  0.59668  0.40332
E287  E   0.94337  0.59668  0.59668
E288  E   0.94337  0.63673  0.50000
loop_
