data_baq_Im-3m  hall_number: 529, V_con: 4, EC_con: 4
_audit_creation_date              2025-03-05
_audit_creation_method            'MOFbuilder_1.0'
_symmetry_space_group_name_H-M    'P1'
_symmetry_Int_Tables_number       1
_symmetry_cell_setting            triclinic
loop_
_symmetry_equiv_pos_as_xyz
  x,y,z
_cell_length_a                    82.9253
_cell_length_b                    82.9253
_cell_length_c                    82.9253
_cell_angle_alpha                 90.0
_cell_angle_beta                  90.0
_cell_angle_gamma                 90.0
loop_
_atom_site_label
_atom_site_type_symbol
_atom_site_fract_x
_atom_site_fract_y
_atom_site_fract_z
V1    V   0.06030  0.25000  0.43970
V2    V   0.06030  0.25000  0.56030
V3    V   0.06030  0.43970  0.25000
V4    V   0.06030  0.43970  0.75000
V5    V   0.06030  0.56030  0.25000
V6    V   0.06030  0.56030  0.75000
V7    V   0.06030  0.75000  0.43970
V8    V   0.06030  0.75000  0.56030
V9    V   0.06030  0.25000  0.43970
V10   V   0.06030  0.25000  0.56030
V11   V   0.06030  0.43970  0.25000
V12   V   0.06030  0.43970  0.75000
V13   V   0.06030  0.56030  0.25000
V14   V   0.06030  0.56030  0.75000
V15   V   0.06030  0.75000  0.43970
V16   V   0.06030  0.75000  0.56030
V17   V   0.25000  0.06030  0.43970
V18   V   0.25000  0.06030  0.56030
V19   V   0.25000  0.06030  0.43970
V20   V   0.25000  0.06030  0.56030
V21   V   0.25000  0.43970  0.06030
V22   V   0.25000  0.43970  0.06030
V23   V   0.25000  0.43970  0.93970
V24   V   0.25000  0.56030  0.06030
V25   V   0.25000  0.56030  0.06030
V26   V   0.25000  0.56030  0.93970
V27   V   0.25000  0.93970  0.43970
V28   V   0.25000  0.93970  0.56030
V29   V   0.43970  0.06030  0.25000
V30   V   0.43970  0.06030  0.75000
V31   V   0.43970  0.06030  0.25000
V32   V   0.43970  0.06030  0.75000
V33   V   0.43970  0.25000  0.06030
V34   V   0.43970  0.25000  0.06030
V35   V   0.43970  0.25000  0.93970
V36   V   0.43970  0.75000  0.06030
V37   V   0.43970  0.75000  0.06030
V38   V   0.43970  0.75000  0.93970
V39   V   0.43970  0.93970  0.25000
V40   V   0.43970  0.93970  0.75000
V41   V   0.56030  0.06030  0.25000
V42   V   0.56030  0.06030  0.75000
V43   V   0.56030  0.06030  0.25000
V44   V   0.56030  0.06030  0.75000
V45   V   0.56030  0.25000  0.06030
V46   V   0.56030  0.25000  0.06030
V47   V   0.56030  0.25000  0.93970
V48   V   0.56030  0.75000  0.06030
V49   V   0.56030  0.75000  0.06030
V50   V   0.56030  0.75000  0.93970
V51   V   0.56030  0.93970  0.25000
V52   V   0.56030  0.93970  0.75000
V53   V   0.75000  0.06030  0.43970
V54   V   0.75000  0.06030  0.56030
V55   V   0.75000  0.06030  0.43970
V56   V   0.75000  0.06030  0.56030
V57   V   0.75000  0.43970  0.06030
V58   V   0.75000  0.43970  0.06030
V59   V   0.75000  0.43970  0.93970
V60   V   0.75000  0.56030  0.06030
V61   V   0.75000  0.56030  0.06030
V62   V   0.75000  0.56030  0.93970
V63   V   0.75000  0.93970  0.43970
V64   V   0.75000  0.93970  0.56030
V65   V   0.93970  0.25000  0.43970
V66   V   0.93970  0.25000  0.56030
V67   V   0.93970  0.43970  0.25000
V68   V   0.93970  0.43970  0.75000
V69   V   0.93970  0.56030  0.25000
V70   V   0.93970  0.56030  0.75000
V71   V   0.93970  0.75000  0.43970
V72   V   0.93970  0.75000  0.56030
EC1    EC   0.00000  0.35443  0.43970
EC2    EC   0.00000  0.35443  0.56030
EC3    EC   0.00000  0.43970  0.35443
EC4    EC   0.00000  0.43970  0.64557
EC5    EC   0.00000  0.56030  0.35443
EC6    EC   0.00000  0.56030  0.64557
EC7    EC   0.00000  0.64557  0.43970
EC8    EC   0.00000  0.64557  0.56030
EC9    EC   0.06030  0.14557  0.50000
EC10   EC   0.06030  0.50000  0.14557
EC11   EC   0.06030  0.50000  0.85443
EC12   EC   0.06030  0.85443  0.50000
EC13   EC   0.14557  0.06030  0.50000
EC14   EC   0.14557  0.50000  0.06030
EC15   EC   0.14557  0.50000  0.93970
EC16   EC   0.14557  0.93970  0.50000
EC17   EC   0.35443  0.00000  0.43970
EC18   EC   0.35443  0.00000  0.56030
EC19   EC   0.35443  0.43970  0.00000
EC20   EC   0.35443  0.56030  0.00000
EC21   EC   0.43970  0.00000  0.35443
EC22   EC   0.43970  0.00000  0.64557
EC23   EC   0.43970  0.35443  0.00000
EC24   EC   0.43970  0.64557  0.00000
EC25   EC   0.50000  0.06030  0.14557
EC26   EC   0.50000  0.06030  0.85443
EC27   EC   0.50000  0.14557  0.06030
EC28   EC   0.50000  0.14557  0.93970
EC29   EC   0.50000  0.85443  0.06030
EC30   EC   0.50000  0.85443  0.93970
EC31   EC   0.50000  0.93970  0.14557
EC32   EC   0.50000  0.93970  0.85443
EC33   EC   0.56030  0.00000  0.35443
EC34   EC   0.56030  0.00000  0.64557
EC35   EC   0.56030  0.35443  0.00000
EC36   EC   0.56030  0.64557  0.00000
EC37   EC   0.64557  0.00000  0.43970
EC38   EC   0.64557  0.00000  0.56030
EC39   EC   0.64557  0.43970  0.00000
EC40   EC   0.64557  0.56030  0.00000
EC41   EC   0.85443  0.06030  0.50000
EC42   EC   0.85443  0.50000  0.06030
EC43   EC   0.85443  0.50000  0.93970
EC44   EC   0.85443  0.93970  0.50000
EC45   EC   0.93970  0.14557  0.50000
EC46   EC   0.93970  0.50000  0.14557
EC47   EC   0.93970  0.50000  0.85443
EC48   EC   0.93970  0.85443  0.50000
E1    E   0.00000  0.14557  0.50000
E2    E   0.00000  0.25000  0.43970
E3    E   0.00000  0.25000  0.56030
E4    E   0.00000  0.35443  0.50000
E5    E   0.00000  0.39707  0.39707
E6    E   0.00000  0.39707  0.60293
E7    E   0.00000  0.43970  0.25000
E8    E   0.00000  0.43970  0.75000
E9    E   0.00000  0.50000  0.14557
E10   E   0.00000  0.50000  0.35443
E11   E   0.00000  0.50000  0.64557
E12   E   0.00000  0.50000  0.85443
E13   E   0.00000  0.56030  0.25000
E14   E   0.00000  0.56030  0.75000
E15   E   0.00000  0.60293  0.39707
E16   E   0.00000  0.60293  0.60293
E17   E   0.00000  0.64557  0.50000
E18   E   0.00000  0.75000  0.43970
E19   E   0.00000  0.75000  0.56030
E20   E   0.00000  0.85443  0.50000
E21   E   0.03015  0.30222  0.43970
E22   E   0.03015  0.30222  0.56030
E23   E   0.03015  0.43970  0.30222
E24   E   0.03015  0.43970  0.69778
E25   E   0.03015  0.56030  0.30222
E26   E   0.03015  0.56030  0.69778
E27   E   0.03015  0.69778  0.43970
E28   E   0.03015  0.69778  0.56030
E29   E   0.06030  0.25000  0.50000
E30   E   0.06030  0.50000  0.25000
E31   E   0.06030  0.50000  0.75000
E32   E   0.06030  0.75000  0.50000
E33   E   0.06030  0.19778  0.46985
E34   E   0.06030  0.19778  0.53015
E35   E   0.06030  0.46985  0.19778
E36   E   0.06030  0.46985  0.80222
E37   E   0.06030  0.53015  0.19778
E38   E   0.06030  0.53015  0.80222
E39   E   0.06030  0.80222  0.46985
E40   E   0.06030  0.80222  0.53015
E41   E   0.10293  0.10293  0.50000
E42   E   0.10293  0.50000  0.10293
E43   E   0.10293  0.50000  0.89707
E44   E   0.10293  0.89707  0.50000
E45   E   0.14557  0.00000  0.50000
E46   E   0.14557  0.50000  0.00000
E47   E   0.19778  0.06030  0.46985
E48   E   0.19778  0.06030  0.53015
E49   E   0.19778  0.46985  0.06030
E50   E   0.19778  0.46985  0.93970
E51   E   0.19778  0.53015  0.06030
E52   E   0.19778  0.53015  0.93970
E53   E   0.19778  0.93970  0.46985
E54   E   0.19778  0.93970  0.53015
E55   E   0.25000  0.00000  0.43970
E56   E   0.25000  0.00000  0.56030
E57   E   0.25000  0.06030  0.50000
E58   E   0.25000  0.43970  0.00000
E59   E   0.25000  0.50000  0.06030
E60   E   0.25000  0.50000  0.93970
E61   E   0.25000  0.56030  0.00000
E62   E   0.25000  0.93970  0.50000
E63   E   0.30222  0.03015  0.43970
E64   E   0.30222  0.03015  0.56030
E65   E   0.30222  0.43970  0.03015
E66   E   0.30222  0.43970  0.96985
E67   E   0.30222  0.56030  0.03015
E68   E   0.30222  0.56030  0.96985
E69   E   0.30222  0.96985  0.43970
E70   E   0.30222  0.96985  0.56030
E71   E   0.35443  0.00000  0.50000
E72   E   0.35443  0.50000  0.00000
E73   E   0.39707  0.00000  0.39707
E74   E   0.39707  0.00000  0.60293
E75   E   0.39707  0.39707  0.00000
E76   E   0.39707  0.60293  0.00000
E77   E   0.43970  0.00000  0.25000
E78   E   0.43970  0.00000  0.75000
E79   E   0.43970  0.03015  0.30222
E80   E   0.43970  0.03015  0.69778
E81   E   0.43970  0.25000  0.00000
E82   E   0.43970  0.30222  0.03015
E83   E   0.43970  0.30222  0.96985
E84   E   0.43970  0.69778  0.03015
E85   E   0.43970  0.69778  0.96985
E86   E   0.43970  0.75000  0.00000
E87   E   0.43970  0.96985  0.30222
E88   E   0.43970  0.96985  0.69778
E89   E   0.46985  0.06030  0.19778
E90   E   0.46985  0.06030  0.80222
E91   E   0.46985  0.19778  0.06030
E92   E   0.46985  0.19778  0.93970
E93   E   0.46985  0.80222  0.06030
E94   E   0.46985  0.80222  0.93970
E95   E   0.46985  0.93970  0.19778
E96   E   0.46985  0.93970  0.80222
E97   E   0.50000  0.00000  0.14557
E98   E   0.50000  0.00000  0.35443
E99   E   0.50000  0.00000  0.64557
E100  E   0.50000  0.00000  0.85443
E101  E   0.50000  0.06030  0.25000
E102  E   0.50000  0.06030  0.75000
E103  E   0.50000  0.10293  0.10293
E104  E   0.50000  0.10293  0.89707
E105  E   0.50000  0.14557  0.00000
E106  E   0.50000  0.25000  0.06030
E107  E   0.50000  0.25000  0.93970
E108  E   0.50000  0.35443  0.00000
E109  E   0.50000  0.64557  0.00000
E110  E   0.50000  0.75000  0.06030
E111  E   0.50000  0.75000  0.93970
E112  E   0.50000  0.85443  0.00000
E113  E   0.50000  0.89707  0.10293
E114  E   0.50000  0.89707  0.89707
E115  E   0.50000  0.93970  0.25000
E116  E   0.50000  0.93970  0.75000
E117  E   0.53015  0.06030  0.19778
E118  E   0.53015  0.06030  0.80222
E119  E   0.53015  0.19778  0.06030
E120  E   0.53015  0.19778  0.93970
E121  E   0.53015  0.80222  0.06030
E122  E   0.53015  0.80222  0.93970
E123  E   0.53015  0.93970  0.19778
E124  E   0.53015  0.93970  0.80222
E125  E   0.56030  0.00000  0.25000
E126  E   0.56030  0.00000  0.75000
E127  E   0.56030  0.03015  0.30222
E128  E   0.56030  0.03015  0.69778
E129  E   0.56030  0.25000  0.00000
E130  E   0.56030  0.30222  0.03015
E131  E   0.56030  0.30222  0.96985
E132  E   0.56030  0.69778  0.03015
E133  E   0.56030  0.69778  0.96985
E134  E   0.56030  0.75000  0.00000
E135  E   0.56030  0.96985  0.30222
E136  E   0.56030  0.96985  0.69778
E137  E   0.60293  0.00000  0.39707
E138  E   0.60293  0.00000  0.60293
E139  E   0.60293  0.39707  0.00000
E140  E   0.60293  0.60293  0.00000
E141  E   0.64557  0.00000  0.50000
E142  E   0.64557  0.50000  0.00000
E143  E   0.69778  0.03015  0.43970
E144  E   0.69778  0.03015  0.56030
E145  E   0.69778  0.43970  0.03015
E146  E   0.69778  0.43970  0.96985
E147  E   0.69778  0.56030  0.03015
E148  E   0.69778  0.56030  0.96985
E149  E   0.69778  0.96985  0.43970
E150  E   0.69778  0.96985  0.56030
E151  E   0.75000  0.00000  0.43970
E152  E   0.75000  0.00000  0.56030
E153  E   0.75000  0.06030  0.50000
E154  E   0.75000  0.43970  0.00000
E155  E   0.75000  0.50000  0.06030
E156  E   0.75000  0.50000  0.93970
E157  E   0.75000  0.56030  0.00000
E158  E   0.75000  0.93970  0.50000
E159  E   0.80222  0.06030  0.46985
E160  E   0.80222  0.06030  0.53015
E161  E   0.80222  0.46985  0.06030
E162  E   0.80222  0.46985  0.93970
E163  E   0.80222  0.53015  0.06030
E164  E   0.80222  0.53015  0.93970
E165  E   0.80222  0.93970  0.46985
E166  E   0.80222  0.93970  0.53015
E167  E   0.85443  0.00000  0.50000
E168  E   0.85443  0.50000  0.00000
E169  E   0.89707  0.10293  0.50000
E170  E   0.89707  0.50000  0.10293
E171  E   0.89707  0.50000  0.89707
E172  E   0.89707  0.89707  0.50000
E173  E   0.93970  0.19778  0.46985
E174  E   0.93970  0.19778  0.53015
E175  E   0.93970  0.25000  0.50000
E176  E   0.93970  0.46985  0.19778
E177  E   0.93970  0.46985  0.80222
E178  E   0.93970  0.50000  0.25000
E179  E   0.93970  0.50000  0.75000
E180  E   0.93970  0.53015  0.19778
E181  E   0.93970  0.53015  0.80222
E182  E   0.93970  0.75000  0.50000
E183  E   0.93970  0.80222  0.46985
E184  E   0.93970  0.80222  0.53015
E185  E   0.96985  0.30222  0.43970
E186  E   0.96985  0.30222  0.56030
E187  E   0.96985  0.43970  0.30222
E188  E   0.96985  0.43970  0.69778
E189  E   0.96985  0.56030  0.30222
E190  E   0.96985  0.56030  0.69778
E191  E   0.96985  0.69778  0.43970
E192  E   0.96985  0.69778  0.56030
loop_
