data_bas_Pm-3m  hall_number: 517, V_con: 4, EC_con: 4
_audit_creation_date              2025-03-05
_audit_creation_method            'MOFbuilder_1.0'
_symmetry_space_group_name_H-M    'P1'
_symmetry_Int_Tables_number       1
_symmetry_cell_setting            triclinic
loop_
_symmetry_equiv_pos_as_xyz
  x,y,z
_cell_length_a                    48.2843
_cell_length_b                    48.2843
_cell_length_c                    48.2843
_cell_angle_alpha                 90.0
_cell_angle_beta                  90.0
_cell_angle_gamma                 90.0
loop_
_atom_site_label
_atom_site_type_symbol
_atom_site_fract_x
_atom_site_fract_y
_atom_site_fract_z
V1    V   0.00000  0.35355  0.50000
V2    V   0.00000  0.50000  0.35355
V3    V   0.00000  0.50000  0.64645
V4    V   0.00000  0.64645  0.50000
V5    V   0.35355  0.00000  0.50000
V6    V   0.35355  0.50000  0.00000
V7    V   0.50000  0.00000  0.35355
V8    V   0.50000  0.00000  0.64645
V9    V   0.50000  0.35355  0.00000
V10   V   0.50000  0.64645  0.00000
V11   V   0.64645  0.00000  0.50000
V12   V   0.64645  0.50000  0.00000
EC1    EC   0.20711  0.35355  0.50000
EC2    EC   0.20711  0.50000  0.35355
EC3    EC   0.20711  0.50000  0.64645
EC4    EC   0.20711  0.64645  0.50000
EC5    EC   0.35355  0.20711  0.50000
EC6    EC   0.35355  0.50000  0.20711
EC7    EC   0.35355  0.50000  0.79289
EC8    EC   0.35355  0.79289  0.50000
EC9    EC   0.50000  0.20711  0.35355
EC10   EC   0.50000  0.20711  0.64645
EC11   EC   0.50000  0.35355  0.20711
EC12   EC   0.50000  0.35355  0.79289
EC13   EC   0.50000  0.64645  0.20711
EC14   EC   0.50000  0.64645  0.79289
EC15   EC   0.50000  0.79289  0.35355
EC16   EC   0.50000  0.79289  0.64645
EC17   EC   0.64645  0.20711  0.50000
EC18   EC   0.64645  0.50000  0.20711
EC19   EC   0.64645  0.50000  0.79289
EC20   EC   0.64645  0.79289  0.50000
EC21   EC   0.79289  0.35355  0.50000
EC22   EC   0.79289  0.50000  0.35355
EC23   EC   0.79289  0.50000  0.64645
EC24   EC   0.79289  0.64645  0.50000
E1    E   0.00000  0.42678  0.42678
E2    E   0.00000  0.42678  0.57322
E3    E   0.00000  0.57322  0.42678
E4    E   0.00000  0.57322  0.57322
E5    E   0.10355  0.35355  0.50000
E6    E   0.10355  0.50000  0.35355
E7    E   0.10355  0.50000  0.64645
E8    E   0.10355  0.64645  0.50000
E9    E   0.20711  0.42678  0.42678
E10   E   0.20711  0.42678  0.57322
E11   E   0.20711  0.57322  0.42678
E12   E   0.20711  0.57322  0.57322
E13   E   0.28033  0.28033  0.50000
E14   E   0.28033  0.50000  0.28033
E15   E   0.28033  0.50000  0.71967
E16   E   0.28033  0.71967  0.50000
E17   E   0.35355  0.10355  0.50000
E18   E   0.35355  0.50000  0.10355
E19   E   0.35355  0.50000  0.89645
E20   E   0.35355  0.89645  0.50000
E21   E   0.42678  0.00000  0.42678
E22   E   0.42678  0.00000  0.57322
E23   E   0.42678  0.20711  0.42678
E24   E   0.42678  0.20711  0.57322
E25   E   0.42678  0.42678  0.00000
E26   E   0.42678  0.42678  0.20711
E27   E   0.42678  0.42678  0.79289
E28   E   0.42678  0.57322  0.00000
E29   E   0.42678  0.57322  0.20711
E30   E   0.42678  0.57322  0.79289
E31   E   0.42678  0.79289  0.42678
E32   E   0.42678  0.79289  0.57322
E33   E   0.50000  0.10355  0.35355
E34   E   0.50000  0.10355  0.64645
E35   E   0.50000  0.28033  0.28033
E36   E   0.50000  0.28033  0.71967
E37   E   0.50000  0.35355  0.10355
E38   E   0.50000  0.35355  0.89645
E39   E   0.50000  0.64645  0.10355
E40   E   0.50000  0.64645  0.89645
E41   E   0.50000  0.71967  0.28033
E42   E   0.50000  0.71967  0.71967
E43   E   0.50000  0.89645  0.35355
E44   E   0.50000  0.89645  0.64645
E45   E   0.57322  0.00000  0.42678
E46   E   0.57322  0.00000  0.57322
E47   E   0.57322  0.20711  0.42678
E48   E   0.57322  0.20711  0.57322
E49   E   0.57322  0.42678  0.00000
E50   E   0.57322  0.42678  0.20711
E51   E   0.57322  0.42678  0.79289
E52   E   0.57322  0.57322  0.00000
E53   E   0.57322  0.57322  0.20711
E54   E   0.57322  0.57322  0.79289
E55   E   0.57322  0.79289  0.42678
E56   E   0.57322  0.79289  0.57322
E57   E   0.64645  0.10355  0.50000
E58   E   0.64645  0.50000  0.10355
E59   E   0.64645  0.50000  0.89645
E60   E   0.64645  0.89645  0.50000
E61   E   0.71967  0.28033  0.50000
E62   E   0.71967  0.50000  0.28033
E63   E   0.71967  0.50000  0.71967
E64   E   0.71967  0.71967  0.50000
E65   E   0.79289  0.42678  0.42678
E66   E   0.79289  0.42678  0.57322
E67   E   0.79289  0.57322  0.42678
E68   E   0.79289  0.57322  0.57322
E69   E   0.89645  0.35355  0.50000
E70   E   0.89645  0.50000  0.35355
E71   E   0.89645  0.50000  0.64645
E72   E   0.89645  0.64645  0.50000
loop_
