data_bbq_P63/mmc  hall_number: 488, V_con: 4, EC_con: 4
_audit_creation_date              2025-03-05
_audit_creation_method            'MOFbuilder_1.0'
_symmetry_space_group_name_H-M    'P1'
_symmetry_Int_Tables_number       1
_symmetry_cell_setting            triclinic
loop_
_symmetry_equiv_pos_as_xyz
  x,y,z
_cell_length_a                    53.8913
_cell_length_b                    53.8913
_cell_length_c                    40.9508
_cell_angle_alpha                 90.0
_cell_angle_beta                  90.0
_cell_angle_gamma                 120.0
loop_
_atom_site_label
_atom_site_type_symbol
_atom_site_fract_x
_atom_site_fract_y
_atom_site_fract_z
V1    V   0.00000  0.50000  0.00000
V2    V   0.00000  0.50000  0.50000
V3    V   0.50000  0.00000  0.00000
V4    V   0.50000  0.00000  0.50000
V5    V   0.50000  0.50000  0.00000
V6    V   0.50000  0.50000  0.50000
EC1    EC   0.14777  0.48111  0.62790
EC2    EC   0.14777  0.48111  0.87210
EC3    EC   0.14777  0.66666  0.62790
EC4    EC   0.14777  0.66666  0.87210
EC5    EC   0.33334  0.48111  0.62790
EC6    EC   0.33334  0.48111  0.87210
EC7    EC   0.33334  0.85223  0.62790
EC8    EC   0.33334  0.85223  0.87210
EC9    EC   0.48111  0.14777  0.12790
EC10   EC   0.48111  0.14777  0.37210
EC11   EC   0.48111  0.33334  0.12790
EC12   EC   0.48111  0.33334  0.37210
EC13   EC   0.51889  0.66666  0.62790
EC14   EC   0.51889  0.66666  0.87210
EC15   EC   0.51889  0.85223  0.62790
EC16   EC   0.51889  0.85223  0.87210
EC17   EC   0.66666  0.14777  0.12790
EC18   EC   0.66666  0.14777  0.37210
EC19   EC   0.66666  0.51889  0.12790
EC20   EC   0.66666  0.51889  0.37210
EC21   EC   0.85223  0.33334  0.12790
EC22   EC   0.85223  0.33334  0.37210
EC23   EC   0.85223  0.51889  0.12790
EC24   EC   0.85223  0.51889  0.37210
E1    E   0.07389  0.49055  0.56395
E2    E   0.07389  0.49055  0.93605
E3    E   0.07389  0.58334  0.56395
E4    E   0.07389  0.58334  0.93605
E5    E   0.14777  0.48111  0.75000
E6    E   0.14777  0.57388  0.62790
E7    E   0.14777  0.57388  0.87210
E8    E   0.14777  0.57389  0.62790
E9    E   0.14777  0.57389  0.87210
E10   E   0.14777  0.66666  0.75000
E11   E   0.24055  0.48111  0.62790
E12   E   0.24055  0.48111  0.87210
E13   E   0.24055  0.75944  0.62790
E14   E   0.24055  0.75944  0.87210
E15   E   0.24056  0.48111  0.62790
E16   E   0.24056  0.48111  0.87210
E17   E   0.24056  0.75945  0.62790
E18   E   0.24056  0.75945  0.87210
E19   E   0.33334  0.48111  0.75000
E20   E   0.33334  0.85223  0.75000
E21   E   0.41666  0.49055  0.56395
E22   E   0.41666  0.49055  0.93605
E23   E   0.41666  0.92611  0.56395
E24   E   0.41666  0.92611  0.93605
E25   E   0.42611  0.57388  0.62790
E26   E   0.42611  0.57388  0.87210
E27   E   0.42611  0.85223  0.62790
E28   E   0.42611  0.85223  0.87210
E29   E   0.42612  0.57389  0.62790
E30   E   0.42612  0.57389  0.87210
E31   E   0.42612  0.85223  0.62790
E32   E   0.42612  0.85223  0.87210
E33   E   0.48111  0.14777  0.25000
E34   E   0.48111  0.24055  0.12790
E35   E   0.48111  0.24055  0.37210
E36   E   0.48111  0.24056  0.12790
E37   E   0.48111  0.24056  0.37210
E38   E   0.48111  0.33334  0.25000
E39   E   0.49055  0.07389  0.06395
E40   E   0.49055  0.07389  0.43605
E41   E   0.49055  0.41666  0.06395
E42   E   0.49055  0.41666  0.43605
E43   E   0.50945  0.58334  0.56395
E44   E   0.50945  0.58334  0.93605
E45   E   0.50945  0.92611  0.56395
E46   E   0.50945  0.92611  0.93605
E47   E   0.51889  0.66666  0.75000
E48   E   0.51889  0.75944  0.62790
E49   E   0.51889  0.75944  0.87210
E50   E   0.51889  0.75945  0.62790
E51   E   0.51889  0.75945  0.87210
E52   E   0.51889  0.85223  0.75000
E53   E   0.57388  0.14777  0.12790
E54   E   0.57388  0.14777  0.37210
E55   E   0.57388  0.42611  0.12790
E56   E   0.57388  0.42611  0.37210
E57   E   0.57389  0.14777  0.12790
E58   E   0.57389  0.14777  0.37210
E59   E   0.57389  0.42612  0.12790
E60   E   0.57389  0.42612  0.37210
E61   E   0.58334  0.07389  0.06395
E62   E   0.58334  0.07389  0.43605
E63   E   0.58334  0.50945  0.06395
E64   E   0.58334  0.50945  0.43605
E65   E   0.66666  0.14777  0.25000
E66   E   0.66666  0.51889  0.25000
E67   E   0.75944  0.24055  0.12790
E68   E   0.75944  0.24055  0.37210
E69   E   0.75944  0.51889  0.12790
E70   E   0.75944  0.51889  0.37210
E71   E   0.75945  0.24056  0.12790
E72   E   0.75945  0.24056  0.37210
E73   E   0.75945  0.51889  0.12790
E74   E   0.75945  0.51889  0.37210
E75   E   0.85223  0.33334  0.25000
E76   E   0.85223  0.42611  0.12790
E77   E   0.85223  0.42611  0.37210
E78   E   0.85223  0.42612  0.12790
E79   E   0.85223  0.42612  0.37210
E80   E   0.85223  0.51889  0.25000
E81   E   0.92611  0.41666  0.06395
E82   E   0.92611  0.41666  0.43605
E83   E   0.92611  0.50945  0.06395
E84   E   0.92611  0.50945  0.43605
loop_
