data_bbr_P4122  hall_number: 368, V_con: 4, EC_con: 4
_audit_creation_date              2025-03-05
_audit_creation_method            'MOFbuilder_1.0'
_symmetry_space_group_name_H-M    'P1'
_symmetry_Int_Tables_number       1
_symmetry_cell_setting            triclinic
loop_
_symmetry_equiv_pos_as_xyz
  x,y,z
_cell_length_a                    27.2329
_cell_length_b                    27.2329
_cell_length_c                    19.2191
_cell_angle_alpha                 90.0
_cell_angle_beta                  90.0
_cell_angle_gamma                 90.0
loop_
_atom_site_label
_atom_site_type_symbol
_atom_site_fract_x
_atom_site_fract_y
_atom_site_fract_z
V1    V   0.00000  0.44919  0.00000
V2    V   0.00000  0.55081  0.50000
V3    V   0.44919  0.00000  0.75000
V4    V   0.55081  0.00000  0.25000
EC1    EC   0.33898  0.33898  0.87500
EC2    EC   0.33898  0.66102  0.62500
EC3    EC   0.33898  0.33898  0.87500
EC4    EC   0.33898  0.66102  0.62500
EC5    EC   0.66102  0.33898  0.12500
EC6    EC   0.66102  0.66102  0.37500
EC7    EC   0.66102  0.33898  0.12500
EC8    EC   0.66102  0.66102  0.37500
E1    E   0.00000  0.50000  0.25000
E2    E   0.00000  0.50000  0.75000
E3    E   0.16949  0.39409  0.93750
E4    E   0.16949  0.60591  0.56250
E5    E   0.33898  0.50000  0.75000
E6    E   0.39409  0.16949  0.81250
E7    E   0.39409  0.83051  0.68750
E8    E   0.50000  0.00000  0.00000
E9    E   0.50000  0.00000  0.50000
E10   E   0.50000  0.33898  0.00000
E11   E   0.50000  0.66102  0.50000
E12   E   0.60591  0.16949  0.18750
E13   E   0.60591  0.83051  0.31250
E14   E   0.66102  0.50000  0.25000
E15   E   0.83051  0.39409  0.06250
E16   E   0.83051  0.60591  0.43750
loop_
