data_bcu-l_Im-3m  hall_number: 529, V_con: 5
_audit_creation_date              2025-03-05
_audit_creation_method            'MOFbuilder_1.0'
_symmetry_space_group_name_H-M    'P1'
_symmetry_Int_Tables_number       1
_symmetry_cell_setting            triclinic
loop_
_symmetry_equiv_pos_as_xyz
  x,y,z
_cell_length_a                    39.8313
_cell_length_b                    39.8313
_cell_length_c                    39.8313
_cell_angle_alpha                 90.0
_cell_angle_beta                  90.0
_cell_angle_gamma                 90.0
loop_
_atom_site_label
_atom_site_type_symbol
_atom_site_fract_x
_atom_site_fract_y
_atom_site_fract_z
V1    V   0.00000  0.17753  0.35505
V2    V   0.00000  0.17753  0.64495
V3    V   0.00000  0.35505  0.17753
V4    V   0.00000  0.35505  0.82247
V5    V   0.00000  0.64495  0.17753
V6    V   0.00000  0.64495  0.82247
V7    V   0.00000  0.82247  0.35505
V8    V   0.00000  0.82247  0.64495
V9    V   0.14495  0.32247  0.50000
V10   V   0.14495  0.50000  0.32247
V11   V   0.14495  0.50000  0.67753
V12   V   0.14495  0.67753  0.50000
V13   V   0.17753  0.00000  0.35505
V14   V   0.17753  0.00000  0.64495
V15   V   0.17753  0.35505  0.00000
V16   V   0.17753  0.64495  0.00000
V17   V   0.32247  0.14495  0.50000
V18   V   0.32247  0.50000  0.14495
V19   V   0.32247  0.50000  0.85505
V20   V   0.32247  0.85505  0.50000
V21   V   0.35505  0.00000  0.17753
V22   V   0.35505  0.00000  0.82247
V23   V   0.35505  0.17753  0.00000
V24   V   0.35505  0.82247  0.00000
V25   V   0.50000  0.14495  0.32247
V26   V   0.50000  0.14495  0.67753
V27   V   0.50000  0.32247  0.14495
V28   V   0.50000  0.32247  0.85505
V29   V   0.50000  0.67753  0.14495
V30   V   0.50000  0.67753  0.85505
V31   V   0.50000  0.85505  0.32247
V32   V   0.50000  0.85505  0.67753
V33   V   0.64495  0.00000  0.17753
V34   V   0.64495  0.00000  0.82247
V35   V   0.64495  0.17753  0.00000
V36   V   0.64495  0.82247  0.00000
V37   V   0.67753  0.14495  0.50000
V38   V   0.67753  0.50000  0.14495
V39   V   0.67753  0.50000  0.85505
V40   V   0.67753  0.85505  0.50000
V41   V   0.82247  0.00000  0.35505
V42   V   0.82247  0.00000  0.64495
V43   V   0.82247  0.35505  0.00000
V44   V   0.82247  0.64495  0.00000
V45   V   0.85505  0.32247  0.50000
V46   V   0.85505  0.50000  0.32247
V47   V   0.85505  0.50000  0.67753
V48   V   0.85505  0.67753  0.50000
E1    E   0.00000  0.26629  0.26629
E2    E   0.00000  0.26629  0.73371
E3    E   0.00000  0.73371  0.26629
E4    E   0.00000  0.73371  0.73371
E5    E   0.07247  0.25000  0.42753
E6    E   0.07247  0.25000  0.57247
E7    E   0.07247  0.42753  0.25000
E8    E   0.07247  0.42753  0.75000
E9    E   0.07247  0.57247  0.25000
E10   E   0.07247  0.57247  0.75000
E11   E   0.07247  0.75000  0.42753
E12   E   0.07247  0.75000  0.57247
E13   E   0.07247  0.25000  0.42753
E14   E   0.07247  0.25000  0.57247
E15   E   0.07247  0.42753  0.25000
E16   E   0.07247  0.42753  0.75000
E17   E   0.07247  0.57247  0.25000
E18   E   0.07247  0.57247  0.75000
E19   E   0.07247  0.75000  0.42753
E20   E   0.07247  0.75000  0.57247
E21   E   0.08876  0.08876  0.35505
E22   E   0.08876  0.08876  0.64495
E23   E   0.08876  0.35505  0.08876
E24   E   0.08876  0.35505  0.91124
E25   E   0.08876  0.64495  0.08876
E26   E   0.08876  0.64495  0.91124
E27   E   0.08876  0.91124  0.35505
E28   E   0.08876  0.91124  0.64495
E29   E   0.14495  0.41124  0.41124
E30   E   0.14495  0.41124  0.58876
E31   E   0.14495  0.58876  0.41124
E32   E   0.14495  0.58876  0.58876
E33   E   0.23371  0.23371  0.50000
E34   E   0.23371  0.50000  0.23371
E35   E   0.23371  0.50000  0.76629
E36   E   0.23371  0.76629  0.50000
E37   E   0.25000  0.07247  0.42753
E38   E   0.25000  0.07247  0.57247
E39   E   0.25000  0.07247  0.42753
E40   E   0.25000  0.07247  0.57247
E41   E   0.25000  0.42753  0.07247
E42   E   0.25000  0.42753  0.92753
E43   E   0.25000  0.42753  0.07247
E44   E   0.25000  0.42753  0.92753
E45   E   0.25000  0.57247  0.07247
E46   E   0.25000  0.57247  0.07247
E47   E   0.25000  0.57247  0.92753
E48   E   0.25000  0.92753  0.42753
E49   E   0.25000  0.92753  0.42753
E50   E   0.25000  0.92753  0.57247
E51   E   0.26629  0.00000  0.26629
E52   E   0.26629  0.00000  0.73371
E53   E   0.26629  0.26629  0.00000
E54   E   0.26629  0.73371  0.00000
E55   E   0.35505  0.08876  0.08876
E56   E   0.35505  0.08876  0.91124
E57   E   0.35505  0.91124  0.08876
E58   E   0.35505  0.91124  0.91124
E59   E   0.41124  0.14495  0.41124
E60   E   0.41124  0.14495  0.58876
E61   E   0.41124  0.41124  0.14495
E62   E   0.41124  0.41124  0.85505
E63   E   0.41124  0.58876  0.14495
E64   E   0.41124  0.58876  0.85505
E65   E   0.41124  0.85505  0.41124
E66   E   0.41124  0.85505  0.58876
E67   E   0.42753  0.07247  0.25000
E68   E   0.42753  0.07247  0.75000
E69   E   0.42753  0.25000  0.07247
E70   E   0.42753  0.25000  0.92753
E71   E   0.42753  0.75000  0.07247
E72   E   0.42753  0.75000  0.92753
E73   E   0.42753  0.92753  0.25000
E74   E   0.42753  0.92753  0.75000
E75   E   0.42753  0.07247  0.25000
E76   E   0.42753  0.07247  0.75000
E77   E   0.42753  0.25000  0.07247
E78   E   0.42753  0.25000  0.92753
E79   E   0.42753  0.75000  0.07247
E80   E   0.42753  0.75000  0.92753
E81   E   0.42753  0.92753  0.25000
E82   E   0.42753  0.92753  0.75000
E83   E   0.50000  0.23371  0.23371
E84   E   0.50000  0.23371  0.76629
E85   E   0.50000  0.76629  0.23371
E86   E   0.50000  0.76629  0.76629
E87   E   0.57247  0.07247  0.25000
E88   E   0.57247  0.07247  0.75000
E89   E   0.57247  0.07247  0.25000
E90   E   0.57247  0.07247  0.75000
E91   E   0.57247  0.25000  0.07247
E92   E   0.57247  0.25000  0.07247
E93   E   0.57247  0.25000  0.92753
E94   E   0.57247  0.75000  0.07247
E95   E   0.57247  0.75000  0.07247
E96   E   0.57247  0.75000  0.92753
E97   E   0.57247  0.92753  0.25000
E98   E   0.57247  0.92753  0.75000
E99   E   0.58876  0.14495  0.41124
E100  E   0.58876  0.14495  0.58876
E101  E   0.58876  0.41124  0.14495
E102  E   0.58876  0.41124  0.85505
E103  E   0.58876  0.58876  0.14495
E104  E   0.58876  0.58876  0.85505
E105  E   0.58876  0.85505  0.41124
E106  E   0.58876  0.85505  0.58876
E107  E   0.64495  0.08876  0.08876
E108  E   0.64495  0.08876  0.91124
E109  E   0.64495  0.91124  0.08876
E110  E   0.64495  0.91124  0.91124
E111  E   0.73371  0.00000  0.26629
E112  E   0.73371  0.00000  0.73371
E113  E   0.73371  0.26629  0.00000
E114  E   0.73371  0.73371  0.00000
E115  E   0.75000  0.07247  0.42753
E116  E   0.75000  0.07247  0.57247
E117  E   0.75000  0.07247  0.42753
E118  E   0.75000  0.07247  0.57247
E119  E   0.75000  0.42753  0.07247
E120  E   0.75000  0.42753  0.92753
E121  E   0.75000  0.42753  0.07247
E122  E   0.75000  0.42753  0.92753
E123  E   0.75000  0.57247  0.07247
E124  E   0.75000  0.57247  0.07247
E125  E   0.75000  0.57247  0.92753
E126  E   0.75000  0.92753  0.42753
E127  E   0.75000  0.92753  0.42753
E128  E   0.75000  0.92753  0.57247
E129  E   0.76629  0.23371  0.50000
E130  E   0.76629  0.50000  0.23371
E131  E   0.76629  0.50000  0.76629
E132  E   0.76629  0.76629  0.50000
E133  E   0.85505  0.41124  0.41124
E134  E   0.85505  0.41124  0.58876
E135  E   0.85505  0.58876  0.41124
E136  E   0.85505  0.58876  0.58876
E137  E   0.91124  0.08876  0.35505
E138  E   0.91124  0.08876  0.64495
E139  E   0.91124  0.35505  0.08876
E140  E   0.91124  0.35505  0.91124
E141  E   0.91124  0.64495  0.08876
E142  E   0.91124  0.64495  0.91124
E143  E   0.91124  0.91124  0.35505
E144  E   0.91124  0.91124  0.64495
E145  E   0.92753  0.25000  0.42753
E146  E   0.92753  0.25000  0.42753
E147  E   0.92753  0.25000  0.57247
E148  E   0.92753  0.42753  0.25000
E149  E   0.92753  0.42753  0.75000
E150  E   0.92753  0.42753  0.25000
E151  E   0.92753  0.42753  0.75000
E152  E   0.92753  0.57247  0.25000
E153  E   0.92753  0.57247  0.75000
E154  E   0.92753  0.75000  0.42753
E155  E   0.92753  0.75000  0.42753
E156  E   0.92753  0.75000  0.57247
loop_
