data_bcu-t_Im-3m  hall_number: 529, V_con: 4, EC_con: 4
_audit_creation_date              2025-03-05
_audit_creation_method            'MOFbuilder_1.0'
_symmetry_space_group_name_H-M    'P1'
_symmetry_Int_Tables_number       1
_symmetry_cell_setting            triclinic
loop_
_symmetry_equiv_pos_as_xyz
  x,y,z
_cell_length_a                    80.6232
_cell_length_b                    80.6232
_cell_length_c                    80.6232
_cell_angle_alpha                 90.0
_cell_angle_beta                  90.0
_cell_angle_gamma                 90.0
loop_
_atom_site_label
_atom_site_type_symbol
_atom_site_fract_x
_atom_site_fract_y
_atom_site_fract_z
V1    V   0.06202  0.27027  0.35798
V2    V   0.06202  0.27027  0.64202
V3    V   0.06202  0.35798  0.27027
V4    V   0.06202  0.35798  0.72973
V5    V   0.06202  0.64202  0.27027
V6    V   0.06202  0.64202  0.72973
V7    V   0.06202  0.72973  0.35798
V8    V   0.06202  0.72973  0.64202
V9    V   0.14202  0.22973  0.43798
V10   V   0.14202  0.22973  0.56202
V11   V   0.14202  0.43798  0.22973
V12   V   0.14202  0.43798  0.77027
V13   V   0.14202  0.56202  0.22973
V14   V   0.14202  0.56202  0.77027
V15   V   0.14202  0.77027  0.43798
V16   V   0.14202  0.77027  0.56202
V17   V   0.22973  0.14202  0.43798
V18   V   0.22973  0.14202  0.56202
V19   V   0.22973  0.43798  0.14202
V20   V   0.22973  0.43798  0.85798
V21   V   0.22973  0.56202  0.14202
V22   V   0.22973  0.56202  0.85798
V23   V   0.22973  0.85798  0.43798
V24   V   0.22973  0.85798  0.56202
V25   V   0.27027  0.06202  0.35798
V26   V   0.27027  0.06202  0.64202
V27   V   0.27027  0.35798  0.06202
V28   V   0.27027  0.35798  0.93798
V29   V   0.27027  0.64202  0.06202
V30   V   0.27027  0.64202  0.93798
V31   V   0.27027  0.93798  0.35798
V32   V   0.27027  0.93798  0.64202
V33   V   0.35798  0.06202  0.27027
V34   V   0.35798  0.06202  0.72973
V35   V   0.35798  0.27027  0.06202
V36   V   0.35798  0.27027  0.93798
V37   V   0.35798  0.72973  0.06202
V38   V   0.35798  0.72973  0.93798
V39   V   0.35798  0.93798  0.27027
V40   V   0.35798  0.93798  0.72973
V41   V   0.43798  0.14202  0.22973
V42   V   0.43798  0.14202  0.77027
V43   V   0.43798  0.22973  0.14202
V44   V   0.43798  0.22973  0.85798
V45   V   0.43798  0.77027  0.14202
V46   V   0.43798  0.77027  0.85798
V47   V   0.43798  0.85798  0.22973
V48   V   0.43798  0.85798  0.77027
V49   V   0.56202  0.14202  0.22973
V50   V   0.56202  0.14202  0.77027
V51   V   0.56202  0.22973  0.14202
V52   V   0.56202  0.22973  0.85798
V53   V   0.56202  0.77027  0.14202
V54   V   0.56202  0.77027  0.85798
V55   V   0.56202  0.85798  0.22973
V56   V   0.56202  0.85798  0.77027
V57   V   0.64202  0.06202  0.27027
V58   V   0.64202  0.06202  0.72973
V59   V   0.64202  0.27027  0.06202
V60   V   0.64202  0.27027  0.93798
V61   V   0.64202  0.72973  0.06202
V62   V   0.64202  0.72973  0.93798
V63   V   0.64202  0.93798  0.27027
V64   V   0.64202  0.93798  0.72973
V65   V   0.72973  0.06202  0.35798
V66   V   0.72973  0.06202  0.64202
V67   V   0.72973  0.35798  0.06202
V68   V   0.72973  0.35798  0.93798
V69   V   0.72973  0.64202  0.06202
V70   V   0.72973  0.64202  0.93798
V71   V   0.72973  0.93798  0.35798
V72   V   0.72973  0.93798  0.64202
V73   V   0.77027  0.14202  0.43798
V74   V   0.77027  0.14202  0.56202
V75   V   0.77027  0.43798  0.14202
V76   V   0.77027  0.43798  0.85798
V77   V   0.77027  0.56202  0.14202
V78   V   0.77027  0.56202  0.85798
V79   V   0.77027  0.85798  0.43798
V80   V   0.77027  0.85798  0.56202
V81   V   0.85798  0.22973  0.43798
V82   V   0.85798  0.22973  0.56202
V83   V   0.85798  0.43798  0.22973
V84   V   0.85798  0.43798  0.77027
V85   V   0.85798  0.56202  0.22973
V86   V   0.85798  0.56202  0.77027
V87   V   0.85798  0.77027  0.43798
V88   V   0.85798  0.77027  0.56202
V89   V   0.93798  0.27027  0.35798
V90   V   0.93798  0.27027  0.64202
V91   V   0.93798  0.35798  0.27027
V92   V   0.93798  0.35798  0.72973
V93   V   0.93798  0.64202  0.27027
V94   V   0.93798  0.64202  0.72973
V95   V   0.93798  0.72973  0.35798
V96   V   0.93798  0.72973  0.64202
EC1    EC   0.06202  0.14972  0.38717
EC2    EC   0.06202  0.14972  0.61283
EC3    EC   0.06202  0.38717  0.14972
EC4    EC   0.06202  0.38717  0.85028
EC5    EC   0.06202  0.61283  0.14972
EC6    EC   0.06202  0.61283  0.85028
EC7    EC   0.06202  0.85028  0.38717
EC8    EC   0.06202  0.85028  0.61283
EC9    EC   0.11283  0.35028  0.43798
EC10   EC   0.11283  0.35028  0.56202
EC11   EC   0.11283  0.43798  0.35028
EC12   EC   0.11283  0.43798  0.64972
EC13   EC   0.11283  0.56202  0.35028
EC14   EC   0.11283  0.56202  0.64972
EC15   EC   0.11283  0.64972  0.43798
EC16   EC   0.11283  0.64972  0.56202
EC17   EC   0.14972  0.06202  0.38717
EC18   EC   0.14972  0.06202  0.61283
EC19   EC   0.14972  0.38717  0.06202
EC20   EC   0.14972  0.38717  0.93798
EC21   EC   0.14972  0.61283  0.06202
EC22   EC   0.14972  0.61283  0.93798
EC23   EC   0.14972  0.93798  0.38717
EC24   EC   0.14972  0.93798  0.61283
EC25   EC   0.35028  0.11283  0.43798
EC26   EC   0.35028  0.11283  0.56202
EC27   EC   0.35028  0.43798  0.11283
EC28   EC   0.35028  0.43798  0.88717
EC29   EC   0.35028  0.56202  0.11283
EC30   EC   0.35028  0.56202  0.88717
EC31   EC   0.35028  0.88717  0.43798
EC32   EC   0.35028  0.88717  0.56202
EC33   EC   0.38717  0.06202  0.14972
EC34   EC   0.38717  0.06202  0.85028
EC35   EC   0.38717  0.14972  0.06202
EC36   EC   0.38717  0.14972  0.93798
EC37   EC   0.38717  0.85028  0.06202
EC38   EC   0.38717  0.85028  0.93798
EC39   EC   0.38717  0.93798  0.14972
EC40   EC   0.38717  0.93798  0.85028
EC41   EC   0.43798  0.11283  0.35028
EC42   EC   0.43798  0.11283  0.64972
EC43   EC   0.43798  0.35028  0.11283
EC44   EC   0.43798  0.35028  0.88717
EC45   EC   0.43798  0.64972  0.11283
EC46   EC   0.43798  0.64972  0.88717
EC47   EC   0.43798  0.88717  0.35028
EC48   EC   0.43798  0.88717  0.64972
EC49   EC   0.56202  0.11283  0.35028
EC50   EC   0.56202  0.11283  0.64972
EC51   EC   0.56202  0.35028  0.11283
EC52   EC   0.56202  0.35028  0.88717
EC53   EC   0.56202  0.64972  0.11283
EC54   EC   0.56202  0.64972  0.88717
EC55   EC   0.56202  0.88717  0.35028
EC56   EC   0.56202  0.88717  0.64972
EC57   EC   0.61283  0.06202  0.14972
EC58   EC   0.61283  0.06202  0.85028
EC59   EC   0.61283  0.14972  0.06202
EC60   EC   0.61283  0.14972  0.93798
EC61   EC   0.61283  0.85028  0.06202
EC62   EC   0.61283  0.85028  0.93798
EC63   EC   0.61283  0.93798  0.14972
EC64   EC   0.61283  0.93798  0.85028
EC65   EC   0.64972  0.11283  0.43798
EC66   EC   0.64972  0.11283  0.56202
EC67   EC   0.64972  0.43798  0.11283
EC68   EC   0.64972  0.43798  0.88717
EC69   EC   0.64972  0.56202  0.11283
EC70   EC   0.64972  0.56202  0.88717
EC71   EC   0.64972  0.88717  0.43798
EC72   EC   0.64972  0.88717  0.56202
EC73   EC   0.85028  0.06202  0.38717
EC74   EC   0.85028  0.06202  0.61283
EC75   EC   0.85028  0.38717  0.06202
EC76   EC   0.85028  0.38717  0.93798
EC77   EC   0.85028  0.61283  0.06202
EC78   EC   0.85028  0.61283  0.93798
EC79   EC   0.85028  0.93798  0.38717
EC80   EC   0.85028  0.93798  0.61283
EC81   EC   0.88717  0.35028  0.43798
EC82   EC   0.88717  0.35028  0.56202
EC83   EC   0.88717  0.43798  0.35028
EC84   EC   0.88717  0.43798  0.64972
EC85   EC   0.88717  0.56202  0.35028
EC86   EC   0.88717  0.56202  0.64972
EC87   EC   0.88717  0.64972  0.43798
EC88   EC   0.88717  0.64972  0.56202
EC89   EC   0.93798  0.14972  0.38717
EC90   EC   0.93798  0.14972  0.61283
EC91   EC   0.93798  0.38717  0.14972
EC92   EC   0.93798  0.38717  0.85028
EC93   EC   0.93798  0.61283  0.14972
EC94   EC   0.93798  0.61283  0.85028
EC95   EC   0.93798  0.85028  0.38717
EC96   EC   0.93798  0.85028  0.61283
E1    E   0.00000  0.14972  0.38717
E2    E   0.00000  0.14972  0.61283
E3    E   0.00000  0.27027  0.35798
E4    E   0.00000  0.27027  0.64202
E5    E   0.00000  0.35798  0.27027
E6    E   0.00000  0.35798  0.72973
E7    E   0.00000  0.38717  0.14972
E8    E   0.00000  0.38717  0.85028
E9    E   0.00000  0.61283  0.14972
E10   E   0.00000  0.61283  0.85028
E11   E   0.00000  0.64202  0.27027
E12   E   0.00000  0.64202  0.72973
E13   E   0.00000  0.72973  0.35798
E14   E   0.00000  0.72973  0.64202
E15   E   0.00000  0.85028  0.38717
E16   E   0.00000  0.85028  0.61283
E17   E   0.06202  0.21000  0.37257
E18   E   0.06202  0.21000  0.62743
E19   E   0.06202  0.31412  0.31412
E20   E   0.06202  0.31412  0.68588
E21   E   0.06202  0.37257  0.21000
E22   E   0.06202  0.37257  0.79000
E23   E   0.06202  0.62743  0.21000
E24   E   0.06202  0.62743  0.79000
E25   E   0.06202  0.68588  0.31412
E26   E   0.06202  0.68588  0.68588
E27   E   0.06202  0.79000  0.37257
E28   E   0.06202  0.79000  0.62743
E29   E   0.08742  0.31027  0.39798
E30   E   0.08742  0.31027  0.60202
E31   E   0.08742  0.39798  0.31027
E32   E   0.08742  0.39798  0.68973
E33   E   0.08742  0.60202  0.31027
E34   E   0.08742  0.60202  0.68973
E35   E   0.08742  0.68973  0.39798
E36   E   0.08742  0.68973  0.60202
E37   E   0.10202  0.18973  0.41258
E38   E   0.10202  0.18973  0.58742
E39   E   0.10202  0.41258  0.18973
E40   E   0.10202  0.41258  0.81027
E41   E   0.10202  0.58742  0.18973
E42   E   0.10202  0.58742  0.81027
E43   E   0.10202  0.81027  0.41258
E44   E   0.10202  0.81027  0.58742
E45   E   0.10587  0.10587  0.38717
E46   E   0.10587  0.10587  0.61283
E47   E   0.10587  0.38717  0.10587
E48   E   0.10587  0.38717  0.89413
E49   E   0.10587  0.61283  0.10587
E50   E   0.10587  0.61283  0.89413
E51   E   0.10587  0.89413  0.38717
E52   E   0.10587  0.89413  0.61283
E53   E   0.11283  0.35028  0.50000
E54   E   0.11283  0.39413  0.39413
E55   E   0.11283  0.39413  0.60587
E56   E   0.11283  0.50000  0.35028
E57   E   0.11283  0.50000  0.64972
E58   E   0.11283  0.60587  0.39413
E59   E   0.11283  0.60587  0.60587
E60   E   0.11283  0.64972  0.50000
E61   E   0.12743  0.29000  0.43798
E62   E   0.12743  0.29000  0.56202
E63   E   0.12743  0.43798  0.29000
E64   E   0.12743  0.43798  0.71000
E65   E   0.12743  0.56202  0.29000
E66   E   0.12743  0.56202  0.71000
E67   E   0.12743  0.71000  0.43798
E68   E   0.12743  0.71000  0.56202
E69   E   0.14202  0.22973  0.50000
E70   E   0.14202  0.50000  0.22973
E71   E   0.14202  0.50000  0.77027
E72   E   0.14202  0.77027  0.50000
E73   E   0.14972  0.00000  0.38717
E74   E   0.14972  0.00000  0.61283
E75   E   0.14972  0.38717  0.00000
E76   E   0.14972  0.61283  0.00000
E77   E   0.18588  0.18588  0.43798
E78   E   0.18588  0.18588  0.56202
E79   E   0.18588  0.43798  0.18588
E80   E   0.18588  0.43798  0.81412
E81   E   0.18588  0.56202  0.18588
E82   E   0.18588  0.56202  0.81412
E83   E   0.18588  0.81412  0.43798
E84   E   0.18588  0.81412  0.56202
E85   E   0.18973  0.10202  0.41258
E86   E   0.18973  0.10202  0.58742
E87   E   0.18973  0.41258  0.10202
E88   E   0.18973  0.41258  0.89798
E89   E   0.18973  0.58742  0.10202
E90   E   0.18973  0.58742  0.89798
E91   E   0.18973  0.89798  0.41258
E92   E   0.18973  0.89798  0.58742
E93   E   0.21000  0.06202  0.37257
E94   E   0.21000  0.06202  0.62743
E95   E   0.21000  0.37257  0.06202
E96   E   0.21000  0.37257  0.93798
E97   E   0.21000  0.62743  0.06202
E98   E   0.21000  0.62743  0.93798
E99   E   0.21000  0.93798  0.37257
E100  E   0.21000  0.93798  0.62743
E101  E   0.22973  0.14202  0.50000
E102  E   0.22973  0.50000  0.14202
E103  E   0.22973  0.50000  0.85798
E104  E   0.22973  0.85798  0.50000
E105  E   0.27027  0.00000  0.35798
E106  E   0.27027  0.00000  0.64202
E107  E   0.27027  0.35798  0.00000
E108  E   0.27027  0.64202  0.00000
E109  E   0.29000  0.12743  0.43798
E110  E   0.29000  0.12743  0.56202
E111  E   0.29000  0.43798  0.12743
E112  E   0.29000  0.43798  0.87257
E113  E   0.29000  0.56202  0.12743
E114  E   0.29000  0.56202  0.87257
E115  E   0.29000  0.87257  0.43798
E116  E   0.29000  0.87257  0.56202
E117  E   0.31027  0.08742  0.39798
E118  E   0.31027  0.08742  0.60202
E119  E   0.31027  0.39798  0.08742
E120  E   0.31027  0.39798  0.91258
E121  E   0.31027  0.60202  0.08742
E122  E   0.31027  0.60202  0.91258
E123  E   0.31027  0.91258  0.39798
E124  E   0.31027  0.91258  0.60202
E125  E   0.31412  0.06202  0.31412
E126  E   0.31412  0.06202  0.68588
E127  E   0.31412  0.31412  0.06202
E128  E   0.31412  0.31412  0.93798
E129  E   0.31412  0.68588  0.06202
E130  E   0.31412  0.68588  0.93798
E131  E   0.31412  0.93798  0.31412
E132  E   0.31412  0.93798  0.68588
E133  E   0.35028  0.11283  0.50000
E134  E   0.35028  0.50000  0.11283
E135  E   0.35028  0.50000  0.88717
E136  E   0.35028  0.88717  0.50000
E137  E   0.35798  0.00000  0.27027
E138  E   0.35798  0.00000  0.72973
E139  E   0.35798  0.27027  0.00000
E140  E   0.35798  0.72973  0.00000
E141  E   0.37257  0.06202  0.21000
E142  E   0.37257  0.06202  0.79000
E143  E   0.37257  0.21000  0.06202
E144  E   0.37257  0.21000  0.93798
E145  E   0.37257  0.79000  0.06202
E146  E   0.37257  0.79000  0.93798
E147  E   0.37257  0.93798  0.21000
E148  E   0.37257  0.93798  0.79000
E149  E   0.38717  0.00000  0.14972
E150  E   0.38717  0.00000  0.85028
E151  E   0.38717  0.10587  0.10587
E152  E   0.38717  0.10587  0.89413
E153  E   0.38717  0.14972  0.00000
E154  E   0.38717  0.85028  0.00000
E155  E   0.38717  0.89413  0.10587
E156  E   0.38717  0.89413  0.89413
E157  E   0.39413  0.11283  0.39413
E158  E   0.39413  0.11283  0.60587
E159  E   0.39413  0.39413  0.11283
E160  E   0.39413  0.39413  0.88717
E161  E   0.39413  0.60587  0.11283
E162  E   0.39413  0.60587  0.88717
E163  E   0.39413  0.88717  0.39413
E164  E   0.39413  0.88717  0.60587
E165  E   0.39798  0.08742  0.31027
E166  E   0.39798  0.08742  0.68973
E167  E   0.39798  0.31027  0.08742
E168  E   0.39798  0.31027  0.91258
E169  E   0.39798  0.68973  0.08742
E170  E   0.39798  0.68973  0.91258
E171  E   0.39798  0.91258  0.31027
E172  E   0.39798  0.91258  0.68973
E173  E   0.41258  0.10202  0.18973
E174  E   0.41258  0.10202  0.81027
E175  E   0.41258  0.18973  0.10202
E176  E   0.41258  0.18973  0.89798
E177  E   0.41258  0.81027  0.10202
E178  E   0.41258  0.81027  0.89798
E179  E   0.41258  0.89798  0.18973
E180  E   0.41258  0.89798  0.81027
E181  E   0.43798  0.12743  0.29000
E182  E   0.43798  0.12743  0.71000
E183  E   0.43798  0.18588  0.18588
E184  E   0.43798  0.18588  0.81412
E185  E   0.43798  0.29000  0.12743
E186  E   0.43798  0.29000  0.87257
E187  E   0.43798  0.71000  0.12743
E188  E   0.43798  0.71000  0.87257
E189  E   0.43798  0.81412  0.18588
E190  E   0.43798  0.81412  0.81412
E191  E   0.43798  0.87257  0.29000
E192  E   0.43798  0.87257  0.71000
E193  E   0.50000  0.11283  0.35028
E194  E   0.50000  0.11283  0.64972
E195  E   0.50000  0.14202  0.22973
E196  E   0.50000  0.14202  0.77027
E197  E   0.50000  0.22973  0.14202
E198  E   0.50000  0.22973  0.85798
E199  E   0.50000  0.35028  0.11283
E200  E   0.50000  0.35028  0.88717
E201  E   0.50000  0.64972  0.11283
E202  E   0.50000  0.64972  0.88717
E203  E   0.50000  0.77027  0.14202
E204  E   0.50000  0.77027  0.85798
E205  E   0.50000  0.85798  0.22973
E206  E   0.50000  0.85798  0.77027
E207  E   0.50000  0.88717  0.35028
E208  E   0.50000  0.88717  0.64972
E209  E   0.56202  0.12743  0.29000
E210  E   0.56202  0.12743  0.71000
E211  E   0.56202  0.18588  0.18588
E212  E   0.56202  0.18588  0.81412
E213  E   0.56202  0.29000  0.12743
E214  E   0.56202  0.29000  0.87257
E215  E   0.56202  0.71000  0.12743
E216  E   0.56202  0.71000  0.87257
E217  E   0.56202  0.81412  0.18588
E218  E   0.56202  0.81412  0.81412
E219  E   0.56202  0.87257  0.29000
E220  E   0.56202  0.87257  0.71000
E221  E   0.58742  0.10202  0.18973
E222  E   0.58742  0.10202  0.81027
E223  E   0.58742  0.18973  0.10202
E224  E   0.58742  0.18973  0.89798
E225  E   0.58742  0.81027  0.10202
E226  E   0.58742  0.81027  0.89798
E227  E   0.58742  0.89798  0.18973
E228  E   0.58742  0.89798  0.81027
E229  E   0.60202  0.08742  0.31027
E230  E   0.60202  0.08742  0.68973
E231  E   0.60202  0.31027  0.08742
E232  E   0.60202  0.31027  0.91258
E233  E   0.60202  0.68973  0.08742
E234  E   0.60202  0.68973  0.91258
E235  E   0.60202  0.91258  0.31027
E236  E   0.60202  0.91258  0.68973
E237  E   0.60587  0.11283  0.39413
E238  E   0.60587  0.11283  0.60587
E239  E   0.60587  0.39413  0.11283
E240  E   0.60587  0.39413  0.88717
E241  E   0.60587  0.60587  0.11283
E242  E   0.60587  0.60587  0.88717
E243  E   0.60587  0.88717  0.39413
E244  E   0.60587  0.88717  0.60587
E245  E   0.61283  0.00000  0.14972
E246  E   0.61283  0.00000  0.85028
E247  E   0.61283  0.10587  0.10587
E248  E   0.61283  0.10587  0.89413
E249  E   0.61283  0.14972  0.00000
E250  E   0.61283  0.85028  0.00000
E251  E   0.61283  0.89413  0.10587
E252  E   0.61283  0.89413  0.89413
E253  E   0.62743  0.06202  0.21000
E254  E   0.62743  0.06202  0.79000
E255  E   0.62743  0.21000  0.06202
E256  E   0.62743  0.21000  0.93798
E257  E   0.62743  0.79000  0.06202
E258  E   0.62743  0.79000  0.93798
E259  E   0.62743  0.93798  0.21000
E260  E   0.62743  0.93798  0.79000
E261  E   0.64202  0.00000  0.27027
E262  E   0.64202  0.00000  0.72973
E263  E   0.64202  0.27027  0.00000
E264  E   0.64202  0.72973  0.00000
E265  E   0.64972  0.11283  0.50000
E266  E   0.64972  0.50000  0.11283
E267  E   0.64972  0.50000  0.88717
E268  E   0.64972  0.88717  0.50000
E269  E   0.68588  0.06202  0.31412
E270  E   0.68588  0.06202  0.68588
E271  E   0.68588  0.31412  0.06202
E272  E   0.68588  0.31412  0.93798
E273  E   0.68588  0.68588  0.06202
E274  E   0.68588  0.68588  0.93798
E275  E   0.68588  0.93798  0.31412
E276  E   0.68588  0.93798  0.68588
E277  E   0.68973  0.08742  0.39798
E278  E   0.68973  0.08742  0.60202
E279  E   0.68973  0.39798  0.08742
E280  E   0.68973  0.39798  0.91258
E281  E   0.68973  0.60202  0.08742
E282  E   0.68973  0.60202  0.91258
E283  E   0.68973  0.91258  0.39798
E284  E   0.68973  0.91258  0.60202
E285  E   0.71000  0.12743  0.43798
E286  E   0.71000  0.12743  0.56202
E287  E   0.71000  0.43798  0.12743
E288  E   0.71000  0.43798  0.87257
E289  E   0.71000  0.56202  0.12743
E290  E   0.71000  0.56202  0.87257
E291  E   0.71000  0.87257  0.43798
E292  E   0.71000  0.87257  0.56202
E293  E   0.72973  0.00000  0.35798
E294  E   0.72973  0.00000  0.64202
E295  E   0.72973  0.35798  0.00000
E296  E   0.72973  0.64202  0.00000
E297  E   0.77027  0.14202  0.50000
E298  E   0.77027  0.50000  0.14202
E299  E   0.77027  0.50000  0.85798
E300  E   0.77027  0.85798  0.50000
E301  E   0.79000  0.06202  0.37257
E302  E   0.79000  0.06202  0.62743
E303  E   0.79000  0.37257  0.06202
E304  E   0.79000  0.37257  0.93798
E305  E   0.79000  0.62743  0.06202
E306  E   0.79000  0.62743  0.93798
E307  E   0.79000  0.93798  0.37257
E308  E   0.79000  0.93798  0.62743
E309  E   0.81027  0.10202  0.41258
E310  E   0.81027  0.10202  0.58742
E311  E   0.81027  0.41258  0.10202
E312  E   0.81027  0.41258  0.89798
E313  E   0.81027  0.58742  0.10202
E314  E   0.81027  0.58742  0.89798
E315  E   0.81027  0.89798  0.41258
E316  E   0.81027  0.89798  0.58742
E317  E   0.81412  0.18588  0.43798
E318  E   0.81412  0.18588  0.56202
E319  E   0.81412  0.43798  0.18588
E320  E   0.81412  0.43798  0.81412
E321  E   0.81412  0.56202  0.18588
E322  E   0.81412  0.56202  0.81412
E323  E   0.81412  0.81412  0.43798
E324  E   0.81412  0.81412  0.56202
E325  E   0.85028  0.00000  0.38717
E326  E   0.85028  0.00000  0.61283
E327  E   0.85028  0.38717  0.00000
E328  E   0.85028  0.61283  0.00000
E329  E   0.85798  0.22973  0.50000
E330  E   0.85798  0.50000  0.22973
E331  E   0.85798  0.50000  0.77027
E332  E   0.85798  0.77027  0.50000
E333  E   0.87257  0.29000  0.43798
E334  E   0.87257  0.29000  0.56202
E335  E   0.87257  0.43798  0.29000
E336  E   0.87257  0.43798  0.71000
E337  E   0.87257  0.56202  0.29000
E338  E   0.87257  0.56202  0.71000
E339  E   0.87257  0.71000  0.43798
E340  E   0.87257  0.71000  0.56202
E341  E   0.88717  0.35028  0.50000
E342  E   0.88717  0.39413  0.39413
E343  E   0.88717  0.39413  0.60587
E344  E   0.88717  0.50000  0.35028
E345  E   0.88717  0.50000  0.64972
E346  E   0.88717  0.60587  0.39413
E347  E   0.88717  0.60587  0.60587
E348  E   0.88717  0.64972  0.50000
E349  E   0.89413  0.10587  0.38717
E350  E   0.89413  0.10587  0.61283
E351  E   0.89413  0.38717  0.10587
E352  E   0.89413  0.38717  0.89413
E353  E   0.89413  0.61283  0.10587
E354  E   0.89413  0.61283  0.89413
E355  E   0.89413  0.89413  0.38717
E356  E   0.89413  0.89413  0.61283
E357  E   0.89798  0.18973  0.41258
E358  E   0.89798  0.18973  0.58742
E359  E   0.89798  0.41258  0.18973
E360  E   0.89798  0.41258  0.81027
E361  E   0.89798  0.58742  0.18973
E362  E   0.89798  0.58742  0.81027
E363  E   0.89798  0.81027  0.41258
E364  E   0.89798  0.81027  0.58742
E365  E   0.91258  0.31027  0.39798
E366  E   0.91258  0.31027  0.60202
E367  E   0.91258  0.39798  0.31027
E368  E   0.91258  0.39798  0.68973
E369  E   0.91258  0.60202  0.31027
E370  E   0.91258  0.60202  0.68973
E371  E   0.91258  0.68973  0.39798
E372  E   0.91258  0.68973  0.60202
E373  E   0.93798  0.21000  0.37257
E374  E   0.93798  0.21000  0.62743
E375  E   0.93798  0.31412  0.31412
E376  E   0.93798  0.31412  0.68588
E377  E   0.93798  0.37257  0.21000
E378  E   0.93798  0.37257  0.79000
E379  E   0.93798  0.62743  0.21000
E380  E   0.93798  0.62743  0.79000
E381  E   0.93798  0.68588  0.31412
E382  E   0.93798  0.68588  0.68588
E383  E   0.93798  0.79000  0.37257
E384  E   0.93798  0.79000  0.62743
loop_
