data_bcu-i_I422  hall_number: 374, V_con: 5
_audit_creation_date              2025-03-05
_audit_creation_method            'MOFbuilder_1.0'
_symmetry_space_group_name_H-M    'P1'
_symmetry_Int_Tables_number       1
_symmetry_cell_setting            triclinic
loop_
_symmetry_equiv_pos_as_xyz
  x,y,z
_cell_length_a                    29.8467
_cell_length_b                    29.8467
_cell_length_c                    28.7128
_cell_angle_alpha                 90.0
_cell_angle_beta                  90.0
_cell_angle_gamma                 90.0
loop_
_atom_site_label
_atom_site_type_symbol
_atom_site_fract_x
_atom_site_fract_y
_atom_site_fract_z
V1    V   0.09066  0.21888  0.64643
V2    V   0.09066  0.78112  0.35357
V3    V   0.21888  0.09066  0.35357
V4    V   0.21888  0.90934  0.64643
V5    V   0.28112  0.40934  0.85357
V6    V   0.28112  0.59066  0.14643
V7    V   0.40934  0.28112  0.14643
V8    V   0.40934  0.71888  0.85357
V9    V   0.59066  0.28112  0.85357
V10   V   0.59066  0.71888  0.14643
V11   V   0.71888  0.40934  0.14643
V12   V   0.71888  0.59066  0.85357
V13   V   0.78112  0.09066  0.64643
V14   V   0.78112  0.90934  0.35357
V15   V   0.90934  0.21888  0.35357
V16   V   0.90934  0.78112  0.64643
E1    E   0.00000  0.21888  0.50000
E2    E   0.00000  0.78112  0.50000
E3    E   0.06411  0.15477  0.35357
E4    E   0.06411  0.84523  0.64643
E5    E   0.15477  0.06411  0.64643
E6    E   0.15477  0.15477  0.50000
E7    E   0.15477  0.84523  0.50000
E8    E   0.15477  0.93589  0.35357
E9    E   0.18589  0.31411  0.75000
E10   E   0.18589  0.68589  0.25000
E11   E   0.21888  0.00000  0.50000
E12   E   0.28112  0.50000  0.00000
E13   E   0.31411  0.18589  0.25000
E14   E   0.31411  0.81411  0.75000
E15   E   0.34523  0.34523  0.00000
E16   E   0.34523  0.43589  0.14643
E17   E   0.34523  0.56411  0.85357
E18   E   0.34523  0.65477  0.00000
E19   E   0.43589  0.34523  0.85357
E20   E   0.43589  0.65477  0.14643
E21   E   0.50000  0.28112  0.00000
E22   E   0.50000  0.71888  0.00000
E23   E   0.56411  0.34523  0.14643
E24   E   0.56411  0.65477  0.85357
E25   E   0.65477  0.34523  0.00000
E26   E   0.65477  0.43589  0.85357
E27   E   0.65477  0.56411  0.14643
E28   E   0.65477  0.65477  0.00000
E29   E   0.68589  0.18589  0.75000
E30   E   0.68589  0.81411  0.25000
E31   E   0.71888  0.50000  0.00000
E32   E   0.78112  0.00000  0.50000
E33   E   0.81411  0.31411  0.25000
E34   E   0.81411  0.68589  0.75000
E35   E   0.84523  0.06411  0.35357
E36   E   0.84523  0.15477  0.50000
E37   E   0.84523  0.84523  0.50000
E38   E   0.84523  0.93589  0.64643
E39   E   0.93589  0.15477  0.64643
E40   E   0.93589  0.84523  0.35357
loop_
