data_bcu-k_Im-3m  hall_number: 529, V_con: 6
_audit_creation_date              2025-03-05
_audit_creation_method            'MOFbuilder_1.0'
_symmetry_space_group_name_H-M    'P1'
_symmetry_Int_Tables_number       1
_symmetry_cell_setting            triclinic
loop_
_symmetry_equiv_pos_as_xyz
  x,y,z
_cell_length_a                    38.8561
_cell_length_b                    38.8561
_cell_length_c                    38.8561
_cell_angle_alpha                 90.0
_cell_angle_beta                  90.0
_cell_angle_gamma                 90.0
loop_
_atom_site_label
_atom_site_type_symbol
_atom_site_fract_x
_atom_site_fract_y
_atom_site_fract_z
V1    V   0.12868  0.12868  0.31066
V2    V   0.12868  0.12868  0.68934
V3    V   0.12868  0.31066  0.12868
V4    V   0.12868  0.31066  0.87132
V5    V   0.12868  0.68934  0.12868
V6    V   0.12868  0.68934  0.87132
V7    V   0.12868  0.87132  0.31066
V8    V   0.12868  0.87132  0.68934
V9    V   0.18934  0.37132  0.37132
V10   V   0.18934  0.37132  0.62868
V11   V   0.18934  0.62868  0.37132
V12   V   0.18934  0.62868  0.62868
V13   V   0.31066  0.12868  0.12868
V14   V   0.31066  0.12868  0.87132
V15   V   0.31066  0.87132  0.12868
V16   V   0.31066  0.87132  0.87132
V17   V   0.37132  0.18934  0.37132
V18   V   0.37132  0.18934  0.62868
V19   V   0.37132  0.37132  0.18934
V20   V   0.37132  0.37132  0.81066
V21   V   0.37132  0.62868  0.18934
V22   V   0.37132  0.62868  0.81066
V23   V   0.37132  0.81066  0.37132
V24   V   0.37132  0.81066  0.62868
V25   V   0.62868  0.18934  0.37132
V26   V   0.62868  0.18934  0.62868
V27   V   0.62868  0.37132  0.18934
V28   V   0.62868  0.37132  0.81066
V29   V   0.62868  0.62868  0.18934
V30   V   0.62868  0.62868  0.81066
V31   V   0.62868  0.81066  0.37132
V32   V   0.62868  0.81066  0.62868
V33   V   0.68934  0.12868  0.12868
V34   V   0.68934  0.12868  0.87132
V35   V   0.68934  0.87132  0.12868
V36   V   0.68934  0.87132  0.87132
V37   V   0.81066  0.37132  0.37132
V38   V   0.81066  0.37132  0.62868
V39   V   0.81066  0.62868  0.37132
V40   V   0.81066  0.62868  0.62868
V41   V   0.87132  0.12868  0.31066
V42   V   0.87132  0.12868  0.68934
V43   V   0.87132  0.31066  0.12868
V44   V   0.87132  0.31066  0.87132
V45   V   0.87132  0.68934  0.12868
V46   V   0.87132  0.68934  0.87132
V47   V   0.87132  0.87132  0.31066
V48   V   0.87132  0.87132  0.68934
E1    E   0.00000  0.12868  0.31066
E2    E   0.00000  0.12868  0.68934
E3    E   0.00000  0.31066  0.12868
E4    E   0.00000  0.31066  0.87132
E5    E   0.00000  0.68934  0.12868
E6    E   0.00000  0.68934  0.87132
E7    E   0.00000  0.87132  0.31066
E8    E   0.00000  0.87132  0.68934
E9    E   0.12868  0.00000  0.31066
E10   E   0.12868  0.00000  0.68934
E11   E   0.12868  0.21967  0.21967
E12   E   0.12868  0.21967  0.78033
E13   E   0.12868  0.31066  0.00000
E14   E   0.12868  0.68934  0.00000
E15   E   0.12868  0.78033  0.21967
E16   E   0.12868  0.78033  0.78033
E17   E   0.15901  0.25000  0.34099
E18   E   0.15901  0.25000  0.65901
E19   E   0.15901  0.34099  0.25000
E20   E   0.15901  0.34099  0.75000
E21   E   0.15901  0.65901  0.25000
E22   E   0.15901  0.65901  0.75000
E23   E   0.15901  0.75000  0.34099
E24   E   0.15901  0.75000  0.65901
E25   E   0.15901  0.25000  0.34099
E26   E   0.15901  0.25000  0.65901
E27   E   0.15901  0.34099  0.25000
E28   E   0.15901  0.34099  0.75000
E29   E   0.15901  0.65901  0.25000
E30   E   0.15901  0.65901  0.75000
E31   E   0.15901  0.75000  0.34099
E32   E   0.15901  0.75000  0.65901
E33   E   0.18934  0.37132  0.50000
E34   E   0.18934  0.50000  0.37132
E35   E   0.18934  0.50000  0.62868
E36   E   0.18934  0.62868  0.50000
E37   E   0.21967  0.12868  0.21967
E38   E   0.21967  0.12868  0.78033
E39   E   0.21967  0.21967  0.12868
E40   E   0.21967  0.21967  0.87132
E41   E   0.21967  0.78033  0.12868
E42   E   0.21967  0.78033  0.87132
E43   E   0.21967  0.87132  0.21967
E44   E   0.21967  0.87132  0.78033
E45   E   0.25000  0.15901  0.34099
E46   E   0.25000  0.15901  0.65901
E47   E   0.25000  0.15901  0.34099
E48   E   0.25000  0.15901  0.65901
E49   E   0.25000  0.34099  0.15901
E50   E   0.25000  0.34099  0.15901
E51   E   0.25000  0.34099  0.84099
E52   E   0.25000  0.65901  0.15901
E53   E   0.25000  0.65901  0.15901
E54   E   0.25000  0.65901  0.84099
E55   E   0.25000  0.84099  0.34099
E56   E   0.25000  0.84099  0.65901
E57   E   0.28033  0.28033  0.37132
E58   E   0.28033  0.28033  0.62868
E59   E   0.28033  0.37132  0.28033
E60   E   0.28033  0.37132  0.71967
E61   E   0.28033  0.62868  0.28033
E62   E   0.28033  0.62868  0.71967
E63   E   0.28033  0.71967  0.37132
E64   E   0.28033  0.71967  0.62868
E65   E   0.31066  0.00000  0.12868
E66   E   0.31066  0.00000  0.87132
E67   E   0.31066  0.12868  0.00000
E68   E   0.31066  0.87132  0.00000
E69   E   0.34099  0.15901  0.25000
E70   E   0.34099  0.15901  0.75000
E71   E   0.34099  0.15901  0.25000
E72   E   0.34099  0.15901  0.75000
E73   E   0.34099  0.25000  0.15901
E74   E   0.34099  0.25000  0.15901
E75   E   0.34099  0.25000  0.84099
E76   E   0.34099  0.75000  0.15901
E77   E   0.34099  0.75000  0.15901
E78   E   0.34099  0.75000  0.84099
E79   E   0.34099  0.84099  0.25000
E80   E   0.34099  0.84099  0.75000
E81   E   0.37132  0.18934  0.50000
E82   E   0.37132  0.28033  0.28033
E83   E   0.37132  0.28033  0.71967
E84   E   0.37132  0.50000  0.18934
E85   E   0.37132  0.50000  0.81066
E86   E   0.37132  0.71967  0.28033
E87   E   0.37132  0.71967  0.71967
E88   E   0.37132  0.81066  0.50000
E89   E   0.50000  0.18934  0.37132
E90   E   0.50000  0.18934  0.62868
E91   E   0.50000  0.37132  0.18934
E92   E   0.50000  0.37132  0.81066
E93   E   0.50000  0.62868  0.18934
E94   E   0.50000  0.62868  0.81066
E95   E   0.50000  0.81066  0.37132
E96   E   0.50000  0.81066  0.62868
E97   E   0.62868  0.18934  0.50000
E98   E   0.62868  0.28033  0.28033
E99   E   0.62868  0.28033  0.71967
E100  E   0.62868  0.50000  0.18934
E101  E   0.62868  0.50000  0.81066
E102  E   0.62868  0.71967  0.28033
E103  E   0.62868  0.71967  0.71967
E104  E   0.62868  0.81066  0.50000
E105  E   0.65901  0.15901  0.25000
E106  E   0.65901  0.15901  0.75000
E107  E   0.65901  0.15901  0.25000
E108  E   0.65901  0.15901  0.75000
E109  E   0.65901  0.25000  0.15901
E110  E   0.65901  0.25000  0.15901
E111  E   0.65901  0.25000  0.84099
E112  E   0.65901  0.75000  0.15901
E113  E   0.65901  0.75000  0.15901
E114  E   0.65901  0.75000  0.84099
E115  E   0.65901  0.84099  0.25000
E116  E   0.65901  0.84099  0.75000
E117  E   0.68934  0.00000  0.12868
E118  E   0.68934  0.00000  0.87132
E119  E   0.68934  0.12868  0.00000
E120  E   0.68934  0.87132  0.00000
E121  E   0.71967  0.28033  0.37132
E122  E   0.71967  0.28033  0.62868
E123  E   0.71967  0.37132  0.28033
E124  E   0.71967  0.37132  0.71967
E125  E   0.71967  0.62868  0.28033
E126  E   0.71967  0.62868  0.71967
E127  E   0.71967  0.71967  0.37132
E128  E   0.71967  0.71967  0.62868
E129  E   0.75000  0.15901  0.34099
E130  E   0.75000  0.15901  0.65901
E131  E   0.75000  0.15901  0.34099
E132  E   0.75000  0.15901  0.65901
E133  E   0.75000  0.34099  0.15901
E134  E   0.75000  0.34099  0.15901
E135  E   0.75000  0.34099  0.84099
E136  E   0.75000  0.65901  0.15901
E137  E   0.75000  0.65901  0.15901
E138  E   0.75000  0.65901  0.84099
E139  E   0.75000  0.84099  0.34099
E140  E   0.75000  0.84099  0.65901
E141  E   0.78033  0.12868  0.21967
E142  E   0.78033  0.12868  0.78033
E143  E   0.78033  0.21967  0.12868
E144  E   0.78033  0.21967  0.87132
E145  E   0.78033  0.78033  0.12868
E146  E   0.78033  0.78033  0.87132
E147  E   0.78033  0.87132  0.21967
E148  E   0.78033  0.87132  0.78033
E149  E   0.81066  0.37132  0.50000
E150  E   0.81066  0.50000  0.37132
E151  E   0.81066  0.50000  0.62868
E152  E   0.81066  0.62868  0.50000
E153  E   0.84099  0.25000  0.34099
E154  E   0.84099  0.25000  0.65901
E155  E   0.84099  0.34099  0.25000
E156  E   0.84099  0.34099  0.75000
E157  E   0.84099  0.65901  0.25000
E158  E   0.84099  0.65901  0.75000
E159  E   0.84099  0.75000  0.34099
E160  E   0.84099  0.75000  0.65901
E161  E   0.87132  0.00000  0.31066
E162  E   0.87132  0.00000  0.68934
E163  E   0.87132  0.21967  0.21967
E164  E   0.87132  0.21967  0.78033
E165  E   0.87132  0.31066  0.00000
E166  E   0.87132  0.68934  0.00000
E167  E   0.87132  0.78033  0.21967
E168  E   0.87132  0.78033  0.78033
loop_
