data_bor_P-43m  hall_number: 511, V_con: 4, EC_con: 3
_audit_creation_date              2025-03-05
_audit_creation_method            'MOFbuilder_1.0'
_symmetry_space_group_name_H-M    'P1'
_symmetry_Int_Tables_number       1
_symmetry_cell_setting            triclinic
loop_
_symmetry_equiv_pos_as_xyz
  x,y,z
_cell_length_a                    24.4949
_cell_length_b                    24.4949
_cell_length_c                    24.4949
_cell_angle_alpha                 90.0
_cell_angle_beta                  90.0
_cell_angle_gamma                 90.0
loop_
_atom_site_label
_atom_site_type_symbol
_atom_site_fract_x
_atom_site_fract_y
_atom_site_fract_z
V1    V   0.00000  0.50000  0.50000
V2    V   0.50000  0.00000  0.50000
V3    V   0.50000  0.50000  0.00000
EC1    EC   0.33333  0.33333  0.66667
EC2    EC   0.33333  0.66667  0.33333
EC3    EC   0.66667  0.33333  0.33333
EC4    EC   0.66667  0.66667  0.66667
E1    E   0.16666  0.41666  0.58334
E2    E   0.16666  0.41666  0.58334
E3    E   0.16666  0.58334  0.41666
E4    E   0.16666  0.58334  0.41666
E5    E   0.41666  0.16666  0.58334
E6    E   0.41666  0.41666  0.83334
E7    E   0.41666  0.58334  0.16666
E8    E   0.41666  0.83334  0.41666
E9    E   0.41666  0.16666  0.58334
E10   E   0.41666  0.41666  0.83334
E11   E   0.41666  0.58334  0.16666
E12   E   0.41666  0.83334  0.41666
E13   E   0.58334  0.16666  0.41666
E14   E   0.58334  0.16666  0.41666
E15   E   0.58334  0.41666  0.16666
E16   E   0.58334  0.41666  0.16666
E17   E   0.58334  0.58334  0.83334
E18   E   0.58334  0.83334  0.58334
E19   E   0.83334  0.41666  0.41666
E20   E   0.83334  0.41666  0.41666
E21   E   0.83334  0.58334  0.58334
loop_
