data_bow_Immm  hall_number: 337, V_con: 4, EC_con: 4
_audit_creation_date              2025-03-05
_audit_creation_method            'MOFbuilder_1.0'
_symmetry_space_group_name_H-M    'P1'
_symmetry_Int_Tables_number       1
_symmetry_cell_setting            triclinic
loop_
_symmetry_equiv_pos_as_xyz
  x,y,z
_cell_length_a                    41.1948
_cell_length_b                    16.4741
_cell_length_c                    29.2548
_cell_angle_alpha                 90.0
_cell_angle_beta                  90.0
_cell_angle_gamma                 90.0
loop_
_atom_site_label
_atom_site_type_symbol
_atom_site_fract_x
_atom_site_fract_y
_atom_site_fract_z
V1    V   0.00000  0.00000  0.00000
V2    V   0.50000  0.50000  0.50000
EC1    EC   0.21023  0.00000  0.17091
EC2    EC   0.21023  0.00000  0.82909
EC3    EC   0.28977  0.50000  0.32909
EC4    EC   0.28977  0.50000  0.67091
EC5    EC   0.71023  0.50000  0.32909
EC6    EC   0.71023  0.50000  0.67091
EC7    EC   0.78977  0.00000  0.17091
EC8    EC   0.78977  0.00000  0.82909
E1    E   0.10511  0.00000  0.08546
E2    E   0.10511  0.00000  0.91454
E3    E   0.21023  0.00000  0.00000
E4    E   0.25000  0.25000  0.25000
E5    E   0.25000  0.25000  0.75000
E6    E   0.25000  0.75000  0.25000
E7    E   0.25000  0.75000  0.75000
E8    E   0.28977  0.50000  0.50000
E9    E   0.39489  0.50000  0.41454
E10   E   0.39489  0.50000  0.58546
E11   E   0.60511  0.50000  0.41454
E12   E   0.60511  0.50000  0.58546
E13   E   0.71023  0.50000  0.50000
E14   E   0.75000  0.25000  0.25000
E15   E   0.75000  0.25000  0.75000
E16   E   0.75000  0.75000  0.25000
E17   E   0.75000  0.75000  0.75000
E18   E   0.78977  0.00000  0.00000
E19   E   0.89489  0.00000  0.08546
E20   E   0.89489  0.00000  0.91454
loop_
