data_bpk_Ibca  hall_number: 341, V_con: 3, EC_con: 3
_audit_creation_date              2025-03-05
_audit_creation_method            'MOFbuilder_1.0'
_symmetry_space_group_name_H-M    'P1'
_symmetry_Int_Tables_number       1
_symmetry_cell_setting            triclinic
loop_
_symmetry_equiv_pos_as_xyz
  x,y,z
_cell_length_a                    55.3079
_cell_length_b                    36.8737
_cell_length_c                    35.2184
_cell_angle_alpha                 90.0
_cell_angle_beta                  90.0
_cell_angle_gamma                 90.0
loop_
_atom_site_label
_atom_site_type_symbol
_atom_site_fract_x
_atom_site_fract_y
_atom_site_fract_z
V1    V   0.03161  0.12292  0.53347
V2    V   0.03161  0.37708  0.03347
V3    V   0.03161  0.62292  0.46653
V4    V   0.03161  0.87708  0.96653
V5    V   0.46839  0.12292  0.46653
V6    V   0.46839  0.37708  0.96653
V7    V   0.46839  0.62292  0.53347
V8    V   0.46839  0.87708  0.03347
V9    V   0.53161  0.12292  0.96653
V10   V   0.53161  0.37708  0.46653
V11   V   0.53161  0.62292  0.03347
V12   V   0.53161  0.87708  0.53347
V13   V   0.96839  0.12292  0.03347
V14   V   0.96839  0.37708  0.53347
V15   V   0.96839  0.62292  0.96653
V16   V   0.96839  0.87708  0.46653
EC1    EC   0.19410  0.03074  0.61166
EC2    EC   0.19410  0.46926  0.11166
EC3    EC   0.19410  0.53074  0.38834
EC4    EC   0.19410  0.96926  0.88834
EC5    EC   0.30590  0.03074  0.38834
EC6    EC   0.30590  0.46926  0.88834
EC7    EC   0.30590  0.53074  0.61166
EC8    EC   0.30590  0.96926  0.11166
EC9    EC   0.69410  0.03074  0.88834
EC10   EC   0.69410  0.46926  0.38834
EC11   EC   0.69410  0.53074  0.11166
EC12   EC   0.69410  0.96926  0.61166
EC13   EC   0.80590  0.03074  0.11166
EC14   EC   0.80590  0.46926  0.61166
EC15   EC   0.80590  0.53074  0.88834
EC16   EC   0.80590  0.96926  0.38834
E1    E   0.00000  0.00000  0.00000
E2    E   0.00000  0.00000  0.50000
E3    E   0.00000  0.25000  0.03347
E4    E   0.00000  0.25000  0.53347
E5    E   0.00000  0.50000  0.00000
E6    E   0.00000  0.50000  0.50000
E7    E   0.00000  0.75000  0.46653
E8    E   0.00000  0.75000  0.96653
E9    E   0.11286  0.07683  0.57256
E10   E   0.11286  0.42317  0.07256
E11   E   0.11286  0.57683  0.42744
E12   E   0.11286  0.92317  0.92744
E13   E   0.19410  0.00000  0.75000
E14   E   0.19410  0.50000  0.25000
E15   E   0.25000  0.03074  0.50000
E16   E   0.25000  0.46926  0.00000
E17   E   0.25000  0.53074  0.50000
E18   E   0.25000  0.96926  0.00000
E19   E   0.30590  0.00000  0.25000
E20   E   0.30590  0.50000  0.75000
E21   E   0.38714  0.07683  0.42744
E22   E   0.38714  0.42317  0.92744
E23   E   0.38714  0.57683  0.57256
E24   E   0.38714  0.92317  0.07256
E25   E   0.50000  0.00000  0.00000
E26   E   0.50000  0.00000  0.50000
E27   E   0.50000  0.25000  0.46653
E28   E   0.50000  0.25000  0.96653
E29   E   0.50000  0.50000  0.00000
E30   E   0.50000  0.50000  0.50000
E31   E   0.50000  0.75000  0.03347
E32   E   0.50000  0.75000  0.53347
E33   E   0.61286  0.07683  0.92744
E34   E   0.61286  0.42317  0.42744
E35   E   0.61286  0.57683  0.07256
E36   E   0.61286  0.92317  0.57256
E37   E   0.69410  0.00000  0.75000
E38   E   0.69410  0.50000  0.25000
E39   E   0.75000  0.03074  0.00000
E40   E   0.75000  0.46926  0.50000
E41   E   0.75000  0.53074  0.00000
E42   E   0.75000  0.96926  0.50000
E43   E   0.80590  0.00000  0.25000
E44   E   0.80590  0.50000  0.75000
E45   E   0.88714  0.07683  0.07256
E46   E   0.88714  0.42317  0.57256
E47   E   0.88714  0.57683  0.92744
E48   E   0.88714  0.92317  0.42744
loop_
