data_bpp_Fddd:2  hall_number: 336, V_con: 3, EC_con: 3
_audit_creation_date              2025-03-05
_audit_creation_method            'MOFbuilder_1.0'
_symmetry_space_group_name_H-M    'P1'
_symmetry_Int_Tables_number       1
_symmetry_cell_setting            triclinic
loop_
_symmetry_equiv_pos_as_xyz
  x,y,z
_cell_length_a                    18.103
_cell_length_b                    34.0481
_cell_length_c                    107.6997
_cell_angle_alpha                 90.0
_cell_angle_beta                  90.0
_cell_angle_gamma                 90.0
loop_
_atom_site_label
_atom_site_type_symbol
_atom_site_fract_x
_atom_site_fract_y
_atom_site_fract_z
V1    V   0.12500  0.12500  0.35530
V2    V   0.12500  0.12500  0.89470
V3    V   0.12500  0.62500  0.39470
V4    V   0.12500  0.62500  0.85530
V5    V   0.37500  0.37500  0.10530
V6    V   0.37500  0.37500  0.64470
V7    V   0.37500  0.87500  0.14470
V8    V   0.37500  0.87500  0.60530
V9    V   0.62500  0.12500  0.39470
V10   V   0.62500  0.12500  0.85530
V11   V   0.62500  0.62500  0.35530
V12   V   0.62500  0.62500  0.89470
V13   V   0.87500  0.37500  0.14470
V14   V   0.87500  0.37500  0.60530
V15   V   0.87500  0.87500  0.10530
V16   V   0.87500  0.87500  0.64470
EC1    EC   0.12500  0.12500  0.26251
EC2    EC   0.12500  0.12500  0.98749
EC3    EC   0.12500  0.62500  0.48749
EC4    EC   0.12500  0.62500  0.76251
EC5    EC   0.37500  0.37500  0.01251
EC6    EC   0.37500  0.37500  0.73749
EC7    EC   0.37500  0.87500  0.23749
EC8    EC   0.37500  0.87500  0.51251
EC9    EC   0.62500  0.12500  0.48749
EC10   EC   0.62500  0.12500  0.76251
EC11   EC   0.62500  0.62500  0.26251
EC12   EC   0.62500  0.62500  0.98749
EC13   EC   0.87500  0.37500  0.23749
EC14   EC   0.87500  0.37500  0.51251
EC15   EC   0.87500  0.87500  0.01251
EC16   EC   0.87500  0.87500  0.73749
E1    E   0.00000  0.00000  0.00000
E2    E   0.00000  0.25000  0.25000
E3    E   0.00000  0.50000  0.50000
E4    E   0.00000  0.75000  0.75000
E5    E   0.12500  0.12500  0.30891
E6    E   0.12500  0.12500  0.94109
E7    E   0.12500  0.37500  0.12500
E8    E   0.12500  0.37500  0.62500
E9    E   0.12500  0.62500  0.44109
E10   E   0.12500  0.62500  0.80891
E11   E   0.12500  0.87500  0.12500
E12   E   0.12500  0.87500  0.62500
E13   E   0.25000  0.00000  0.25000
E14   E   0.25000  0.25000  0.00000
E15   E   0.25000  0.50000  0.75000
E16   E   0.25000  0.75000  0.50000
E17   E   0.37500  0.12500  0.37500
E18   E   0.37500  0.12500  0.87500
E19   E   0.37500  0.37500  0.05891
E20   E   0.37500  0.37500  0.69109
E21   E   0.37500  0.62500  0.37500
E22   E   0.37500  0.62500  0.87500
E23   E   0.37500  0.87500  0.19109
E24   E   0.37500  0.87500  0.55891
E25   E   0.50000  0.00000  0.50000
E26   E   0.50000  0.25000  0.75000
E27   E   0.50000  0.50000  0.00000
E28   E   0.50000  0.75000  0.25000
E29   E   0.62500  0.12500  0.44109
E30   E   0.62500  0.12500  0.80891
E31   E   0.62500  0.37500  0.12500
E32   E   0.62500  0.37500  0.62500
E33   E   0.62500  0.62500  0.30891
E34   E   0.62500  0.62500  0.94109
E35   E   0.62500  0.87500  0.12500
E36   E   0.62500  0.87500  0.62500
E37   E   0.75000  0.00000  0.75000
E38   E   0.75000  0.25000  0.50000
E39   E   0.75000  0.50000  0.25000
E40   E   0.75000  0.75000  0.00000
E41   E   0.87500  0.12500  0.37500
E42   E   0.87500  0.12500  0.87500
E43   E   0.87500  0.37500  0.19109
E44   E   0.87500  0.37500  0.55891
E45   E   0.87500  0.62500  0.37500
E46   E   0.87500  0.62500  0.87500
E47   E   0.87500  0.87500  0.05891
E48   E   0.87500  0.87500  0.69109
loop_
