data_bpr_Ia-3d  hall_number: 530, V_con: 3, EC_con: 3
_audit_creation_date              2025-03-05
_audit_creation_method            'MOFbuilder_1.0'
_symmetry_space_group_name_H-M    'P1'
_symmetry_Int_Tables_number       1
_symmetry_cell_setting            triclinic
loop_
_symmetry_equiv_pos_as_xyz
  x,y,z
_cell_length_a                    58.5505
_cell_length_b                    58.5505
_cell_length_c                    58.5505
_cell_angle_alpha                 90.0
_cell_angle_beta                  90.0
_cell_angle_gamma                 90.0
loop_
_atom_site_label
_atom_site_type_symbol
_atom_site_fract_x
_atom_site_fract_y
_atom_site_fract_z
V1    V   0.02303  0.12500  0.77303
V2    V   0.02303  0.37500  0.27303
V3    V   0.02303  0.62500  0.22697
V4    V   0.02303  0.87500  0.72697
V5    V   0.02303  0.12500  0.77303
V6    V   0.02303  0.37500  0.27303
V7    V   0.02303  0.62500  0.22697
V8    V   0.02303  0.87500  0.72697
V9    V   0.12500  0.22697  0.47697
V10   V   0.12500  0.27303  0.97697
V11   V   0.12500  0.72697  0.52303
V12   V   0.12500  0.77303  0.02303
V13   V   0.12500  0.77303  0.02303
V14   V   0.22697  0.02303  0.62500
V15   V   0.22697  0.02303  0.62500
V16   V   0.22697  0.47697  0.12500
V17   V   0.22697  0.52303  0.37500
V18   V   0.22697  0.97697  0.87500
V19   V   0.27303  0.02303  0.37500
V20   V   0.27303  0.02303  0.37500
V21   V   0.27303  0.47697  0.87500
V22   V   0.27303  0.52303  0.62500
V23   V   0.27303  0.97697  0.12500
V24   V   0.37500  0.22697  0.52303
V25   V   0.37500  0.27303  0.02303
V26   V   0.37500  0.27303  0.02303
V27   V   0.37500  0.72697  0.47697
V28   V   0.37500  0.77303  0.97697
V29   V   0.47697  0.12500  0.22697
V30   V   0.47697  0.37500  0.72697
V31   V   0.47697  0.62500  0.77303
V32   V   0.47697  0.87500  0.27303
V33   V   0.52303  0.12500  0.72697
V34   V   0.52303  0.37500  0.22697
V35   V   0.52303  0.62500  0.27303
V36   V   0.52303  0.87500  0.77303
V37   V   0.62500  0.22697  0.02303
V38   V   0.62500  0.22697  0.02303
V39   V   0.62500  0.27303  0.52303
V40   V   0.62500  0.72697  0.97697
V41   V   0.62500  0.77303  0.47697
V42   V   0.72697  0.02303  0.87500
V43   V   0.72697  0.02303  0.87500
V44   V   0.72697  0.47697  0.37500
V45   V   0.72697  0.52303  0.12500
V46   V   0.72697  0.97697  0.62500
V47   V   0.77303  0.02303  0.12500
V48   V   0.77303  0.02303  0.12500
V49   V   0.77303  0.47697  0.62500
V50   V   0.77303  0.52303  0.87500
V51   V   0.77303  0.97697  0.37500
V52   V   0.87500  0.22697  0.97697
V53   V   0.87500  0.27303  0.47697
V54   V   0.87500  0.72697  0.02303
V55   V   0.87500  0.72697  0.02303
V56   V   0.87500  0.77303  0.52303
V57   V   0.97697  0.12500  0.27303
V58   V   0.97697  0.37500  0.77303
V59   V   0.97697  0.62500  0.72697
V60   V   0.97697  0.87500  0.22697
EC1    EC   0.10632  0.14368  0.62500
EC2    EC   0.10632  0.35632  0.12500
EC3    EC   0.10632  0.64368  0.37500
EC4    EC   0.10632  0.85632  0.87500
EC5    EC   0.10632  0.14368  0.62500
EC6    EC   0.10632  0.35632  0.12500
EC7    EC   0.10632  0.64368  0.37500
EC8    EC   0.10632  0.85632  0.87500
EC9    EC   0.12500  0.10632  0.35632
EC10   EC   0.12500  0.10632  0.35632
EC11   EC   0.12500  0.39368  0.85632
EC12   EC   0.12500  0.39368  0.85632
EC13   EC   0.12500  0.60632  0.64368
EC14   EC   0.12500  0.89368  0.14368
EC15   EC   0.12500  0.89368  0.14368
EC16   EC   0.14368  0.12500  0.89368
EC17   EC   0.14368  0.37500  0.39368
EC18   EC   0.14368  0.62500  0.10632
EC19   EC   0.14368  0.87500  0.60632
EC20   EC   0.14368  0.12500  0.89368
EC21   EC   0.14368  0.37500  0.39368
EC22   EC   0.14368  0.62500  0.10632
EC23   EC   0.14368  0.87500  0.60632
EC24   EC   0.35632  0.12500  0.10632
EC25   EC   0.35632  0.37500  0.60632
EC26   EC   0.35632  0.62500  0.89368
EC27   EC   0.35632  0.87500  0.39368
EC28   EC   0.35632  0.12500  0.10632
EC29   EC   0.35632  0.37500  0.60632
EC30   EC   0.35632  0.62500  0.89368
EC31   EC   0.35632  0.87500  0.39368
EC32   EC   0.37500  0.10632  0.64368
EC33   EC   0.37500  0.10632  0.64368
EC34   EC   0.37500  0.39368  0.14368
EC35   EC   0.37500  0.39368  0.14368
EC36   EC   0.37500  0.60632  0.35632
EC37   EC   0.37500  0.60632  0.35632
EC38   EC   0.37500  0.89368  0.85632
EC39   EC   0.39368  0.14368  0.37500
EC40   EC   0.39368  0.35632  0.87500
EC41   EC   0.39368  0.64368  0.62500
EC42   EC   0.39368  0.85632  0.12500
EC43   EC   0.39368  0.14368  0.37500
EC44   EC   0.39368  0.35632  0.87500
EC45   EC   0.39368  0.64368  0.62500
EC46   EC   0.39368  0.85632  0.12500
EC47   EC   0.60632  0.14368  0.87500
EC48   EC   0.60632  0.14368  0.87500
EC49   EC   0.60632  0.35632  0.37500
EC50   EC   0.60632  0.35632  0.37500
EC51   EC   0.60632  0.64368  0.12500
EC52   EC   0.60632  0.85632  0.62500
EC53   EC   0.62500  0.10632  0.14368
EC54   EC   0.62500  0.10632  0.14368
EC55   EC   0.62500  0.39368  0.64368
EC56   EC   0.62500  0.39368  0.64368
EC57   EC   0.62500  0.60632  0.85632
EC58   EC   0.62500  0.89368  0.35632
EC59   EC   0.62500  0.89368  0.35632
EC60   EC   0.64368  0.12500  0.60632
EC61   EC   0.64368  0.37500  0.10632
EC62   EC   0.64368  0.37500  0.10632
EC63   EC   0.64368  0.62500  0.39368
EC64   EC   0.64368  0.62500  0.39368
EC65   EC   0.64368  0.87500  0.89368
EC66   EC   0.85632  0.12500  0.39368
EC67   EC   0.85632  0.12500  0.39368
EC68   EC   0.85632  0.37500  0.89368
EC69   EC   0.85632  0.62500  0.60632
EC70   EC   0.85632  0.87500  0.10632
EC71   EC   0.85632  0.87500  0.10632
EC72   EC   0.87500  0.10632  0.85632
EC73   EC   0.87500  0.10632  0.85632
EC74   EC   0.87500  0.39368  0.35632
EC75   EC   0.87500  0.39368  0.35632
EC76   EC   0.87500  0.60632  0.14368
EC77   EC   0.87500  0.60632  0.14368
EC78   EC   0.87500  0.89368  0.64368
EC79   EC   0.89368  0.14368  0.12500
EC80   EC   0.89368  0.14368  0.12500
EC81   EC   0.89368  0.35632  0.62500
EC82   EC   0.89368  0.35632  0.62500
EC83   EC   0.89368  0.64368  0.87500
EC84   EC   0.89368  0.85632  0.37500
E1    E   0.05099  0.11566  0.31468
E2    E   0.05099  0.38434  0.81468
E3    E   0.05099  0.61566  0.68532
E4    E   0.05099  0.88434  0.18532
E5    E   0.06468  0.13434  0.69901
E6    E   0.06468  0.36566  0.19901
E7    E   0.06468  0.63434  0.30099
E8    E   0.06468  0.86566  0.80099
E9    E   0.08335  0.12500  0.83335
E10   E   0.08335  0.37500  0.33335
E11   E   0.08335  0.62500  0.16665
E12   E   0.08335  0.87500  0.66665
E13   E   0.08335  0.12500  0.83335
E14   E   0.08335  0.37500  0.33335
E15   E   0.08335  0.62500  0.16665
E16   E   0.08335  0.87500  0.66665
E17   E   0.11566  0.18532  0.55099
E18   E   0.11566  0.31468  0.05099
E19   E   0.11566  0.68532  0.44901
E20   E   0.11566  0.81468  0.94901
E21   E   0.12500  0.16665  0.41665
E22   E   0.12500  0.16665  0.41665
E23   E   0.12500  0.33335  0.91665
E24   E   0.12500  0.33335  0.91665
E25   E   0.12500  0.66665  0.58335
E26   E   0.12500  0.83335  0.08335
E27   E   0.12500  0.83335  0.08335
E28   E   0.13434  0.19901  0.93532
E29   E   0.13434  0.30099  0.43532
E30   E   0.13434  0.69901  0.06468
E31   E   0.13434  0.80099  0.56468
E32   E   0.16665  0.08335  0.62500
E33   E   0.16665  0.41665  0.12500
E34   E   0.16665  0.58335  0.37500
E35   E   0.16665  0.91665  0.87500
E36   E   0.16665  0.08335  0.62500
E37   E   0.16665  0.41665  0.12500
E38   E   0.16665  0.58335  0.37500
E39   E   0.16665  0.91665  0.87500
E40   E   0.18532  0.05099  0.88434
E41   E   0.18532  0.44901  0.38434
E42   E   0.18532  0.55099  0.11566
E43   E   0.18532  0.94901  0.61566
E44   E   0.19901  0.06468  0.36566
E45   E   0.19901  0.43532  0.86566
E46   E   0.19901  0.56468  0.63434
E47   E   0.19901  0.93532  0.13434
E48   E   0.30099  0.06468  0.63434
E49   E   0.30099  0.43532  0.13434
E50   E   0.30099  0.56468  0.36566
E51   E   0.30099  0.93532  0.86566
E52   E   0.31468  0.05099  0.11566
E53   E   0.31468  0.44901  0.61566
E54   E   0.31468  0.55099  0.88434
E55   E   0.31468  0.94901  0.38434
E56   E   0.33335  0.08335  0.37500
E57   E   0.33335  0.41665  0.87500
E58   E   0.33335  0.58335  0.62500
E59   E   0.33335  0.91665  0.12500
E60   E   0.33335  0.08335  0.37500
E61   E   0.33335  0.41665  0.87500
E62   E   0.33335  0.58335  0.62500
E63   E   0.33335  0.91665  0.12500
E64   E   0.36566  0.19901  0.06468
E65   E   0.36566  0.30099  0.56468
E66   E   0.36566  0.69901  0.93532
E67   E   0.36566  0.80099  0.43532
E68   E   0.37500  0.16665  0.58335
E69   E   0.37500  0.16665  0.58335
E70   E   0.37500  0.33335  0.08335
E71   E   0.37500  0.33335  0.08335
E72   E   0.37500  0.66665  0.41665
E73   E   0.37500  0.66665  0.41665
E74   E   0.37500  0.83335  0.91665
E75   E   0.38434  0.18532  0.44901
E76   E   0.38434  0.31468  0.94901
E77   E   0.38434  0.68532  0.55099
E78   E   0.38434  0.81468  0.05099
E79   E   0.41665  0.12500  0.16665
E80   E   0.41665  0.37500  0.66665
E81   E   0.41665  0.62500  0.83335
E82   E   0.41665  0.87500  0.33335
E83   E   0.41665  0.12500  0.16665
E84   E   0.41665  0.37500  0.66665
E85   E   0.41665  0.62500  0.83335
E86   E   0.41665  0.87500  0.33335
E87   E   0.43532  0.13434  0.30099
E88   E   0.43532  0.36566  0.80099
E89   E   0.43532  0.63434  0.69901
E90   E   0.43532  0.86566  0.19901
E91   E   0.44901  0.11566  0.68532
E92   E   0.44901  0.38434  0.18532
E93   E   0.44901  0.61566  0.31468
E94   E   0.44901  0.88434  0.81468
E95   E   0.55099  0.11566  0.18532
E96   E   0.55099  0.38434  0.68532
E97   E   0.55099  0.61566  0.81468
E98   E   0.55099  0.88434  0.31468
E99   E   0.56468  0.13434  0.80099
E100  E   0.56468  0.36566  0.30099
E101  E   0.56468  0.63434  0.19901
E102  E   0.56468  0.86566  0.69901
E103  E   0.58335  0.12500  0.66665
E104  E   0.58335  0.37500  0.16665
E105  E   0.58335  0.37500  0.16665
E106  E   0.58335  0.62500  0.33335
E107  E   0.58335  0.62500  0.33335
E108  E   0.58335  0.87500  0.83335
E109  E   0.61566  0.18532  0.94901
E110  E   0.61566  0.31468  0.44901
E111  E   0.61566  0.68532  0.05099
E112  E   0.61566  0.81468  0.55099
E113  E   0.62500  0.16665  0.08335
E114  E   0.62500  0.16665  0.08335
E115  E   0.62500  0.33335  0.58335
E116  E   0.62500  0.33335  0.58335
E117  E   0.62500  0.66665  0.91665
E118  E   0.62500  0.83335  0.41665
E119  E   0.62500  0.83335  0.41665
E120  E   0.63434  0.19901  0.56468
E121  E   0.63434  0.30099  0.06468
E122  E   0.63434  0.69901  0.43532
E123  E   0.63434  0.80099  0.93532
E124  E   0.66665  0.08335  0.87500
E125  E   0.66665  0.08335  0.87500
E126  E   0.66665  0.41665  0.37500
E127  E   0.66665  0.41665  0.37500
E128  E   0.66665  0.58335  0.12500
E129  E   0.66665  0.91665  0.62500
E130  E   0.68532  0.05099  0.61566
E131  E   0.68532  0.44901  0.11566
E132  E   0.68532  0.55099  0.38434
E133  E   0.68532  0.94901  0.88434
E134  E   0.69901  0.06468  0.13434
E135  E   0.69901  0.43532  0.63434
E136  E   0.69901  0.56468  0.86566
E137  E   0.69901  0.93532  0.36566
E138  E   0.80099  0.06468  0.86566
E139  E   0.80099  0.43532  0.36566
E140  E   0.80099  0.56468  0.13434
E141  E   0.80099  0.93532  0.63434
E142  E   0.81468  0.05099  0.38434
E143  E   0.81468  0.44901  0.88434
E144  E   0.81468  0.55099  0.61566
E145  E   0.81468  0.94901  0.11566
E146  E   0.83335  0.08335  0.12500
E147  E   0.83335  0.08335  0.12500
E148  E   0.83335  0.41665  0.62500
E149  E   0.83335  0.41665  0.62500
E150  E   0.83335  0.58335  0.87500
E151  E   0.83335  0.91665  0.37500
E152  E   0.86566  0.19901  0.43532
E153  E   0.86566  0.30099  0.93532
E154  E   0.86566  0.69901  0.56468
E155  E   0.86566  0.80099  0.06468
E156  E   0.87500  0.16665  0.91665
E157  E   0.87500  0.16665  0.91665
E158  E   0.87500  0.33335  0.41665
E159  E   0.87500  0.33335  0.41665
E160  E   0.87500  0.66665  0.08335
E161  E   0.87500  0.66665  0.08335
E162  E   0.87500  0.83335  0.58335
E163  E   0.88434  0.18532  0.05099
E164  E   0.88434  0.31468  0.55099
E165  E   0.88434  0.68532  0.94901
E166  E   0.88434  0.81468  0.44901
E167  E   0.91665  0.12500  0.33335
E168  E   0.91665  0.12500  0.33335
E169  E   0.91665  0.37500  0.83335
E170  E   0.91665  0.62500  0.66665
E171  E   0.91665  0.87500  0.16665
E172  E   0.91665  0.87500  0.16665
E173  E   0.93532  0.13434  0.19901
E174  E   0.93532  0.36566  0.69901
E175  E   0.93532  0.63434  0.80099
E176  E   0.93532  0.86566  0.30099
E177  E   0.94901  0.11566  0.81468
E178  E   0.94901  0.38434  0.31468
E179  E   0.94901  0.61566  0.18532
E180  E   0.94901  0.88434  0.68532
loop_
