data_bva_Pm-3n  hall_number: 520, V_con: 3
_audit_creation_date              2025-03-05
_audit_creation_method            'MOFbuilder_1.0'
_symmetry_space_group_name_H-M    'P1'
_symmetry_Int_Tables_number       1
_symmetry_cell_setting            triclinic
loop_
_symmetry_equiv_pos_as_xyz
  x,y,z
_cell_length_a                    39.9999
_cell_length_b                    39.9999
_cell_length_c                    39.9999
_cell_angle_alpha                 90.0
_cell_angle_beta                  90.0
_cell_angle_gamma                 90.0
loop_
_atom_site_label
_atom_site_type_symbol
_atom_site_fract_x
_atom_site_fract_y
_atom_site_fract_z
V1    V   0.12500  0.12500  0.37482
V2    V   0.12500  0.12500  0.62518
V3    V   0.12500  0.37482  0.12500
V4    V   0.12500  0.37482  0.87500
V5    V   0.12500  0.62518  0.12500
V6    V   0.12500  0.62518  0.87500
V7    V   0.12500  0.87500  0.37482
V8    V   0.12500  0.87500  0.62518
V9    V   0.12518  0.37500  0.37500
V10   V   0.12518  0.37500  0.62500
V11   V   0.12518  0.62500  0.37500
V12   V   0.12518  0.62500  0.62500
V13   V   0.37482  0.12500  0.12500
V14   V   0.37482  0.12500  0.87500
V15   V   0.37482  0.87500  0.12500
V16   V   0.37482  0.87500  0.87500
V17   V   0.37500  0.12518  0.37500
V18   V   0.37500  0.12518  0.62500
V19   V   0.37500  0.37500  0.12518
V20   V   0.37500  0.37500  0.87482
V21   V   0.37500  0.62500  0.12518
V22   V   0.37500  0.62500  0.87482
V23   V   0.37500  0.87482  0.37500
V24   V   0.37500  0.87482  0.62500
V25   V   0.62500  0.12518  0.37500
V26   V   0.62500  0.12518  0.62500
V27   V   0.62500  0.37500  0.12518
V28   V   0.62500  0.37500  0.87482
V29   V   0.62500  0.62500  0.12518
V30   V   0.62500  0.62500  0.87482
V31   V   0.62500  0.87482  0.37500
V32   V   0.62500  0.87482  0.62500
V33   V   0.62518  0.12500  0.12500
V34   V   0.62518  0.12500  0.87500
V35   V   0.62518  0.87500  0.12500
V36   V   0.62518  0.87500  0.87500
V37   V   0.87482  0.37500  0.37500
V38   V   0.87482  0.37500  0.62500
V39   V   0.87482  0.62500  0.37500
V40   V   0.87482  0.62500  0.62500
V41   V   0.87500  0.12500  0.37482
V42   V   0.87500  0.12500  0.62518
V43   V   0.87500  0.37482  0.12500
V44   V   0.87500  0.37482  0.87500
V45   V   0.87500  0.62518  0.12500
V46   V   0.87500  0.62518  0.87500
V47   V   0.87500  0.87500  0.37482
V48   V   0.87500  0.87500  0.62518
E1    E   0.00000  0.12500  0.37482
E2    E   0.00000  0.12500  0.62518
E3    E   0.00000  0.87500  0.37482
E4    E   0.00000  0.87500  0.62518
E5    E   0.12500  0.37482  0.00000
E6    E   0.12500  0.62518  0.00000
E7    E   0.12509  0.25000  0.37491
E8    E   0.12509  0.25000  0.62509
E9    E   0.12509  0.37491  0.25000
E10   E   0.12509  0.37491  0.75000
E11   E   0.12509  0.62509  0.25000
E12   E   0.12509  0.62509  0.75000
E13   E   0.12509  0.75000  0.37491
E14   E   0.12509  0.75000  0.62509
E15   E   0.12509  0.25000  0.37491
E16   E   0.12509  0.25000  0.62509
E17   E   0.12509  0.37491  0.25000
E18   E   0.12509  0.37491  0.75000
E19   E   0.12509  0.62509  0.25000
E20   E   0.12509  0.62509  0.75000
E21   E   0.12509  0.75000  0.37491
E22   E   0.12509  0.75000  0.62509
E23   E   0.12518  0.37500  0.50000
E24   E   0.12518  0.62500  0.50000
E25   E   0.25000  0.12509  0.37491
E26   E   0.25000  0.12509  0.62509
E27   E   0.25000  0.12509  0.37491
E28   E   0.25000  0.12509  0.62509
E29   E   0.25000  0.37491  0.12509
E30   E   0.25000  0.37491  0.87491
E31   E   0.25000  0.37491  0.12509
E32   E   0.25000  0.37491  0.87491
E33   E   0.25000  0.62509  0.12509
E34   E   0.25000  0.62509  0.87491
E35   E   0.25000  0.62509  0.12509
E36   E   0.25000  0.62509  0.87491
E37   E   0.25000  0.87491  0.37491
E38   E   0.25000  0.87491  0.62509
E39   E   0.25000  0.87491  0.37491
E40   E   0.25000  0.87491  0.62509
E41   E   0.37482  0.00000  0.12500
E42   E   0.37482  0.00000  0.87500
E43   E   0.37491  0.12509  0.25000
E44   E   0.37491  0.12509  0.75000
E45   E   0.37491  0.25000  0.12509
E46   E   0.37491  0.25000  0.87491
E47   E   0.37491  0.75000  0.12509
E48   E   0.37491  0.75000  0.87491
E49   E   0.37491  0.87491  0.25000
E50   E   0.37491  0.87491  0.75000
E51   E   0.37491  0.12509  0.25000
E52   E   0.37491  0.12509  0.75000
E53   E   0.37491  0.25000  0.12509
E54   E   0.37491  0.25000  0.87491
E55   E   0.37491  0.75000  0.12509
E56   E   0.37491  0.75000  0.87491
E57   E   0.37491  0.87491  0.25000
E58   E   0.37491  0.87491  0.75000
E59   E   0.37500  0.50000  0.12518
E60   E   0.37500  0.50000  0.87482
E61   E   0.50000  0.12518  0.37500
E62   E   0.50000  0.12518  0.62500
E63   E   0.50000  0.87482  0.37500
E64   E   0.50000  0.87482  0.62500
E65   E   0.62500  0.50000  0.12518
E66   E   0.62500  0.50000  0.87482
E67   E   0.62509  0.12509  0.25000
E68   E   0.62509  0.12509  0.75000
E69   E   0.62509  0.25000  0.12509
E70   E   0.62509  0.25000  0.87491
E71   E   0.62509  0.75000  0.12509
E72   E   0.62509  0.75000  0.87491
E73   E   0.62509  0.87491  0.25000
E74   E   0.62509  0.87491  0.75000
E75   E   0.62509  0.12509  0.25000
E76   E   0.62509  0.12509  0.75000
E77   E   0.62509  0.25000  0.12509
E78   E   0.62509  0.25000  0.87491
E79   E   0.62509  0.75000  0.12509
E80   E   0.62509  0.75000  0.87491
E81   E   0.62509  0.87491  0.25000
E82   E   0.62509  0.87491  0.75000
E83   E   0.62518  0.00000  0.12500
E84   E   0.62518  0.00000  0.87500
E85   E   0.75000  0.12509  0.37491
E86   E   0.75000  0.12509  0.62509
E87   E   0.75000  0.12509  0.37491
E88   E   0.75000  0.12509  0.62509
E89   E   0.75000  0.37491  0.12509
E90   E   0.75000  0.37491  0.87491
E91   E   0.75000  0.37491  0.12509
E92   E   0.75000  0.37491  0.87491
E93   E   0.75000  0.62509  0.12509
E94   E   0.75000  0.62509  0.87491
E95   E   0.75000  0.62509  0.12509
E96   E   0.75000  0.62509  0.87491
E97   E   0.75000  0.87491  0.37491
E98   E   0.75000  0.87491  0.62509
E99   E   0.75000  0.87491  0.37491
E100  E   0.75000  0.87491  0.62509
E101  E   0.87482  0.37500  0.50000
E102  E   0.87482  0.62500  0.50000
E103  E   0.87491  0.25000  0.37491
E104  E   0.87491  0.25000  0.62509
E105  E   0.87491  0.37491  0.25000
E106  E   0.87491  0.37491  0.75000
E107  E   0.87491  0.62509  0.25000
E108  E   0.87491  0.62509  0.75000
E109  E   0.87491  0.75000  0.37491
E110  E   0.87491  0.75000  0.62509
E111  E   0.87491  0.25000  0.37491
E112  E   0.87491  0.25000  0.62509
E113  E   0.87491  0.37491  0.25000
E114  E   0.87491  0.37491  0.75000
E115  E   0.87491  0.62509  0.25000
E116  E   0.87491  0.62509  0.75000
E117  E   0.87491  0.75000  0.37491
E118  E   0.87491  0.75000  0.62509
E119  E   0.87500  0.37482  0.00000
E120  E   0.87500  0.62518  0.00000
loop_
