data_cat_P63/mmc  hall_number: 488, V_con: 6, EC_con: 4
_audit_creation_date              2025-03-05
_audit_creation_method            'MOFbuilder_1.0'
_symmetry_space_group_name_H-M    'P1'
_symmetry_Int_Tables_number       1
_symmetry_cell_setting            triclinic
loop_
_symmetry_equiv_pos_as_xyz
  x,y,z
_cell_length_a                    22.5737
_cell_length_b                    22.5737
_cell_length_c                    27.5103
_cell_angle_alpha                 90.0
_cell_angle_beta                  90.0
_cell_angle_gamma                 120.0
loop_
_atom_site_label
_atom_site_type_symbol
_atom_site_fract_x
_atom_site_fract_y
_atom_site_fract_z
V1    V   0.00000  0.00000  0.00000
V2    V   0.00000  0.00000  0.50000
EC1    EC   0.18567  0.37134  0.25000
EC2    EC   0.18567  0.81433  0.25000
EC3    EC   0.37134  0.18567  0.75000
EC4    EC   0.62866  0.81433  0.25000
EC5    EC   0.81433  0.18567  0.75000
EC6    EC   0.81433  0.62866  0.75000
E1    E   0.09283  0.18566  0.12500
E2    E   0.09283  0.18566  0.37500
E3    E   0.09283  0.90717  0.12500
E4    E   0.09283  0.90717  0.37500
E5    E   0.18566  0.09283  0.62500
E6    E   0.18566  0.09283  0.87500
E7    E   0.18567  0.59283  0.25000
E8    E   0.18567  0.59284  0.25000
E9    E   0.40716  0.59283  0.25000
E10   E   0.40716  0.81433  0.25000
E11   E   0.40717  0.59284  0.25000
E12   E   0.40717  0.81433  0.25000
E13   E   0.59283  0.18567  0.75000
E14   E   0.59283  0.40716  0.75000
E15   E   0.59284  0.18567  0.75000
E16   E   0.59284  0.40717  0.75000
E17   E   0.81433  0.40716  0.75000
E18   E   0.81433  0.40717  0.75000
E19   E   0.81434  0.90717  0.12500
E20   E   0.81434  0.90717  0.37500
E21   E   0.90717  0.09283  0.62500
E22   E   0.90717  0.09283  0.87500
E23   E   0.90717  0.81434  0.62500
E24   E   0.90717  0.81434  0.87500
loop_
