data_cdj_Im-3  hall_number: 500, V_con: 6, EC_con: 3
_audit_creation_date              2025-03-05
_audit_creation_method            'MOFbuilder_1.0'
_symmetry_space_group_name_H-M    'P1'
_symmetry_Int_Tables_number       1
_symmetry_cell_setting            triclinic
loop_
_symmetry_equiv_pos_as_xyz
  x,y,z
_cell_length_a                    36.4575
_cell_length_b                    36.4575
_cell_length_c                    36.4575
_cell_angle_alpha                 90.0
_cell_angle_beta                  90.0
_cell_angle_gamma                 90.0
loop_
_atom_site_label
_atom_site_type_symbol
_atom_site_fract_x
_atom_site_fract_y
_atom_site_fract_z
V1    V   0.25000  0.25000  0.25000
V2    V   0.25000  0.25000  0.75000
V3    V   0.25000  0.75000  0.25000
V4    V   0.25000  0.75000  0.75000
V5    V   0.75000  0.25000  0.25000
V6    V   0.75000  0.25000  0.75000
V7    V   0.75000  0.75000  0.25000
V8    V   0.75000  0.75000  0.75000
EC1    EC   0.00000  0.24997  0.13715
EC2    EC   0.00000  0.24997  0.86285
EC3    EC   0.00000  0.75003  0.13715
EC4    EC   0.00000  0.75003  0.86285
EC5    EC   0.13715  0.00000  0.24997
EC6    EC   0.13715  0.00000  0.75003
EC7    EC   0.24997  0.13715  0.00000
EC8    EC   0.24997  0.86285  0.00000
EC9    EC   0.25003  0.36285  0.50000
EC10   EC   0.25003  0.63715  0.50000
EC11   EC   0.36285  0.50000  0.25003
EC12   EC   0.36285  0.50000  0.74997
EC13   EC   0.50000  0.25003  0.36285
EC14   EC   0.50000  0.25003  0.63715
EC15   EC   0.50000  0.74997  0.36285
EC16   EC   0.50000  0.74997  0.63715
EC17   EC   0.63715  0.50000  0.25003
EC18   EC   0.63715  0.50000  0.74997
EC19   EC   0.74997  0.36285  0.50000
EC20   EC   0.74997  0.63715  0.50000
EC21   EC   0.75003  0.13715  0.00000
EC22   EC   0.75003  0.86285  0.00000
EC23   EC   0.86285  0.00000  0.24997
EC24   EC   0.86285  0.00000  0.75003
E1    E   0.00000  0.00000  0.24997
E2    E   0.00000  0.00000  0.75003
E3    E   0.00000  0.24997  0.00000
E4    E   0.00000  0.75003  0.00000
E5    E   0.12500  0.24999  0.19357
E6    E   0.12500  0.24999  0.80643
E7    E   0.12500  0.75001  0.19357
E8    E   0.12500  0.75001  0.80643
E9    E   0.19357  0.12500  0.24999
E10   E   0.19357  0.12500  0.75001
E11   E   0.19357  0.87500  0.24999
E12   E   0.19357  0.87500  0.75001
E13   E   0.24997  0.00000  0.00000
E14   E   0.24999  0.19357  0.12500
E15   E   0.24999  0.19357  0.87500
E16   E   0.24999  0.80643  0.12500
E17   E   0.24999  0.80643  0.87500
E18   E   0.25001  0.30643  0.37500
E19   E   0.25001  0.30643  0.62500
E20   E   0.25001  0.69357  0.37500
E21   E   0.25001  0.69357  0.62500
E22   E   0.25003  0.50000  0.50000
E23   E   0.30643  0.37500  0.25001
E24   E   0.30643  0.37500  0.74999
E25   E   0.30643  0.62500  0.25001
E26   E   0.30643  0.62500  0.74999
E27   E   0.37500  0.25001  0.30643
E28   E   0.37500  0.25001  0.69357
E29   E   0.37500  0.74999  0.30643
E30   E   0.37500  0.74999  0.69357
E31   E   0.50000  0.25003  0.50000
E32   E   0.50000  0.50000  0.25003
E33   E   0.50000  0.50000  0.74997
E34   E   0.50000  0.74997  0.50000
E35   E   0.62500  0.25001  0.30643
E36   E   0.62500  0.25001  0.69357
E37   E   0.62500  0.74999  0.30643
E38   E   0.62500  0.74999  0.69357
E39   E   0.69357  0.37500  0.25001
E40   E   0.69357  0.37500  0.74999
E41   E   0.69357  0.62500  0.25001
E42   E   0.69357  0.62500  0.74999
E43   E   0.74997  0.50000  0.50000
E44   E   0.74999  0.30643  0.37500
E45   E   0.74999  0.30643  0.62500
E46   E   0.74999  0.69357  0.37500
E47   E   0.74999  0.69357  0.62500
E48   E   0.75001  0.19357  0.12500
E49   E   0.75001  0.19357  0.87500
E50   E   0.75001  0.80643  0.12500
E51   E   0.75001  0.80643  0.87500
E52   E   0.75003  0.00000  0.00000
E53   E   0.80643  0.12500  0.24999
E54   E   0.80643  0.12500  0.75001
E55   E   0.80643  0.87500  0.24999
E56   E   0.80643  0.87500  0.75001
E57   E   0.87500  0.24999  0.19357
E58   E   0.87500  0.24999  0.80643
E59   E   0.87500  0.75001  0.19357
E60   E   0.87500  0.75001  0.80643
loop_
