data_ced_P6/mmm  hall_number: 485, V_con: 12, EC_con: 3
_audit_creation_date              2025-03-05
_audit_creation_method            'MOFbuilder_1.0'
_symmetry_space_group_name_H-M    'P1'
_symmetry_Int_Tables_number       1
_symmetry_cell_setting            triclinic
loop_
_symmetry_equiv_pos_as_xyz
  x,y,z
_cell_length_a                    18.024
_cell_length_b                    18.024
_cell_length_c                    18.6707
_cell_angle_alpha                 90.0
_cell_angle_beta                  90.0
_cell_angle_gamma                 120.0
loop_
_atom_site_label
_atom_site_type_symbol
_atom_site_fract_x
_atom_site_fract_y
_atom_site_fract_z
V1    V   0.00000  0.00000  0.50000
EC1    EC   0.00000  0.50000  0.26733
EC2    EC   0.00000  0.50000  0.73267
EC3    EC   0.50000  0.00000  0.26733
EC4    EC   0.50000  0.00000  0.73267
EC5    EC   0.50000  0.50000  0.26733
EC6    EC   0.50000  0.50000  0.73267
E1    E   0.00000  0.25000  0.38366
E2    E   0.00000  0.25000  0.61634
E3    E   0.00000  0.50000  0.00000
E4    E   0.00000  0.75000  0.38366
E5    E   0.00000  0.75000  0.61634
E6    E   0.25000  0.00000  0.38366
E7    E   0.25000  0.00000  0.61634
E8    E   0.25000  0.25000  0.38366
E9    E   0.25000  0.25000  0.61634
E10   E   0.50000  0.00000  0.00000
E11   E   0.50000  0.50000  0.00000
E12   E   0.75000  0.00000  0.38366
E13   E   0.75000  0.00000  0.61634
E14   E   0.75000  0.75000  0.38366
E15   E   0.75000  0.75000  0.61634
loop_
