data_cor_R-3c:H  hall_number: 167, V_con: 6, EC_con: 4
_audit_creation_date              2025-03-05
_audit_creation_method            'MOFbuilder_1.0'
_symmetry_space_group_name_H-M    'P1'
_symmetry_Int_Tables_number       1
_symmetry_cell_setting            triclinic
loop_
_symmetry_equiv_pos_as_xyz
  x,y,z
_cell_length_a                    24.6908
_cell_length_b                    24.6908
_cell_length_c                    70.2459
_cell_angle_alpha                 90.0
_cell_angle_beta                  90.0
_cell_angle_gamma                 120.0
loop_
_atom_site_label
_atom_site_type_symbol
_atom_site_fract_x
_atom_site_fract_y
_atom_site_fract_z
V1    V   0.00000  0.00000  0.15209
V2    V   0.00000  0.50000  0.65209
V3    V   0.50000  0.00000  0.84791
V4    V   0.50000  0.50000  0.34791
EC1    EC   0.20599  0.00000  0.75000
EC2    EC   0.20599  0.50000  0.25000
EC3    EC   0.70599  0.00000  0.25000
EC4    EC   0.70599  0.50000  0.75000
E1    E   0.14700  0.14700  0.20105
E2    E   0.14700  0.35300  0.70105
E3    E   0.18633  0.01966  0.11771
E4    E   0.18633  0.48034  0.61771
E5    E   0.64700  0.64700  0.29895
E6    E   0.64700  0.85300  0.79895
E7    E   0.68633  0.51966  0.38229
E8    E   0.68633  0.98034  0.88229
loop_
