data_css-a_P-4n2  hall_number: 395, V_con: 4, EC_con: 4
_audit_creation_date              2025-03-05
_audit_creation_method            'MOFbuilder_1.0'
_symmetry_space_group_name_H-M    'P1'
_symmetry_Int_Tables_number       1
_symmetry_cell_setting            triclinic
loop_
_symmetry_equiv_pos_as_xyz
  x,y,z
_cell_length_a                    15.6963
_cell_length_b                    15.6963
_cell_length_c                    50.8014
_cell_angle_alpha                 90.0
_cell_angle_beta                  90.0
_cell_angle_gamma                 90.0
loop_
_atom_site_label
_atom_site_type_symbol
_atom_site_fract_x
_atom_site_fract_y
_atom_site_fract_z
V1    V   0.18727  0.74233  0.43041
V2    V   0.24233  0.68727  0.06959
V3    V   0.25767  0.18727  0.56959
V4    V   0.31273  0.24233  0.93041
V5    V   0.68727  0.75767  0.93041
V6    V   0.74233  0.81273  0.56959
V7    V   0.75767  0.31273  0.06959
V8    V   0.81273  0.25767  0.43041
EC1    EC   0.00008  0.81852  0.81959
EC2    EC   0.18148  0.00008  0.18041
EC3    EC   0.31852  0.50008  0.68041
EC4    EC   0.49992  0.31852  0.31959
EC5    EC   0.50008  0.68148  0.31959
EC6    EC   0.68148  0.49992  0.68041
EC7    EC   0.81852  0.99992  0.18041
EC8    EC   0.99992  0.18148  0.81959
E1    E   0.00000  0.00000  0.43041
E2    E   0.00000  0.00000  0.56959
E3    E   0.00000  0.50000  0.68041
E4    E   0.00000  0.50000  0.81959
E5    E   0.03042  0.84360  0.12500
E6    E   0.03520  0.22247  0.50000
E7    E   0.15640  0.03042  0.87500
E8    E   0.15922  0.34078  0.75000
E9    E   0.15922  0.34078  0.75000
E10   E   0.15930  0.65930  0.75000
E11   E   0.22247  0.96480  0.50000
E12   E   0.27753  0.46480  0.00000
E13   E   0.34070  0.15930  0.25000
E14   E   0.34078  0.84078  0.25000
E15   E   0.34078  0.84078  0.25000
E16   E   0.34360  0.53042  0.37500
E17   E   0.46480  0.72247  0.00000
E18   E   0.46958  0.34360  0.62500
E19   E   0.50000  0.00000  0.18041
E20   E   0.50000  0.00000  0.31959
E21   E   0.50000  0.50000  0.06959
E22   E   0.50000  0.50000  0.93041
E23   E   0.53042  0.65640  0.62500
E24   E   0.53520  0.27753  0.00000
E25   E   0.65640  0.46958  0.37500
E26   E   0.65922  0.15922  0.25000
E27   E   0.65922  0.15922  0.25000
E28   E   0.65930  0.84070  0.25000
E29   E   0.72247  0.53520  0.00000
E30   E   0.77753  0.03520  0.50000
E31   E   0.84070  0.34070  0.75000
E32   E   0.84078  0.65922  0.75000
E33   E   0.84078  0.65922  0.75000
E34   E   0.84360  0.96958  0.87500
E35   E   0.96480  0.77753  0.50000
E36   E   0.96958  0.15640  0.12500
loop_
