data_ctn-e_I-43d  hall_number: 516, V_con: 5
_audit_creation_date              2025-03-05
_audit_creation_method            'MOFbuilder_1.0'
_symmetry_space_group_name_H-M    'P1'
_symmetry_Int_Tables_number       1
_symmetry_cell_setting            triclinic
loop_
_symmetry_equiv_pos_as_xyz
  x,y,z
_cell_length_a                    44.0221
_cell_length_b                    44.0221
_cell_length_c                    44.0221
_cell_angle_alpha                 90.0
_cell_angle_beta                  90.0
_cell_angle_gamma                 90.0
loop_
_atom_site_label
_atom_site_type_symbol
_atom_site_fract_x
_atom_site_fract_y
_atom_site_fract_z
V1    V   0.02001  0.13820  0.95531
V2    V   0.02001  0.86180  0.54469
V3    V   0.04469  0.47999  0.13820
V4    V   0.04469  0.52001  0.36180
V5    V   0.11180  0.27001  0.79469
V6    V   0.11180  0.72999  0.70531
V7    V   0.13820  0.04469  0.47999
V8    V   0.13820  0.95531  0.02001
V9    V   0.20531  0.38820  0.27001
V10   V   0.20531  0.61180  0.22999
V11   V   0.22999  0.20531  0.61180
V12   V   0.22999  0.79469  0.88820
V13   V   0.27001  0.20531  0.38820
V14   V   0.27001  0.79469  0.11180
V15   V   0.29469  0.38820  0.72999
V16   V   0.29469  0.61180  0.77001
V17   V   0.36180  0.04469  0.52001
V18   V   0.36180  0.95531  0.97999
V19   V   0.38820  0.27001  0.20531
V20   V   0.38820  0.72999  0.29469
V21   V   0.45531  0.47999  0.86180
V22   V   0.45531  0.52001  0.63820
V23   V   0.47999  0.13820  0.04469
V24   V   0.47999  0.86180  0.45531
V25   V   0.52001  0.36180  0.04469
V26   V   0.52001  0.63820  0.45531
V27   V   0.54469  0.02001  0.86180
V28   V   0.54469  0.97999  0.63820
V29   V   0.61180  0.22999  0.20531
V30   V   0.61180  0.77001  0.29469
V31   V   0.63820  0.45531  0.52001
V32   V   0.63820  0.54469  0.97999
V33   V   0.70531  0.11180  0.72999
V34   V   0.70531  0.88820  0.77001
V35   V   0.72999  0.29469  0.38820
V36   V   0.72999  0.70531  0.11180
V37   V   0.77001  0.29469  0.61180
V38   V   0.77001  0.70531  0.88820
V39   V   0.79469  0.11180  0.27001
V40   V   0.79469  0.88820  0.22999
V41   V   0.86180  0.45531  0.47999
V42   V   0.86180  0.54469  0.02001
V43   V   0.88820  0.22999  0.79469
V44   V   0.88820  0.77001  0.70531
V45   V   0.95531  0.02001  0.13820
V46   V   0.95531  0.97999  0.36180
V47   V   0.97999  0.36180  0.95531
V48   V   0.97999  0.63820  0.54469
E1    E   0.00000  0.25000  0.79469
E2    E   0.00000  0.25000  0.95531
E3    E   0.00000  0.75000  0.54469
E4    E   0.00000  0.75000  0.70531
E5    E   0.01234  0.42090  0.04675
E6    E   0.01234  0.57910  0.45325
E7    E   0.04469  0.50000  0.25000
E8    E   0.04590  0.31591  0.87500
E9    E   0.04590  0.68409  0.62500
E10   E   0.04675  0.01234  0.42090
E11   E   0.04675  0.98766  0.07910
E12   E   0.06591  0.20410  0.87500
E13   E   0.06591  0.79590  0.62500
E14   E   0.07910  0.04675  0.98766
E15   E   0.07910  0.95325  0.51234
E16   E   0.12500  0.43409  0.20410
E17   E   0.12500  0.45410  0.31591
E18   E   0.12500  0.54590  0.18409
E19   E   0.12500  0.56591  0.29590
E20   E   0.17090  0.23766  0.70325
E21   E   0.17090  0.76234  0.79675
E22   E   0.18409  0.12500  0.54590
E23   E   0.18409  0.87500  0.95410
E24   E   0.20325  0.32910  0.76234
E25   E   0.20325  0.67090  0.73766
E26   E   0.20410  0.12500  0.43409
E27   E   0.20410  0.87500  0.06591
E28   E   0.20531  0.50000  0.25000
E29   E   0.23766  0.29675  0.32910
E30   E   0.23766  0.70325  0.17090
E31   E   0.25000  0.04469  0.50000
E32   E   0.25000  0.20531  0.50000
E33   E   0.25000  0.79469  0.00000
E34   E   0.25000  0.95531  0.00000
E35   E   0.26234  0.29675  0.67090
E36   E   0.26234  0.70325  0.82910
E37   E   0.29469  0.50000  0.75000
E38   E   0.29590  0.12500  0.56591
E39   E   0.29590  0.87500  0.93409
E40   E   0.29675  0.32910  0.23766
E41   E   0.29675  0.67090  0.26234
E42   E   0.31591  0.12500  0.45410
E43   E   0.31591  0.87500  0.04590
E44   E   0.32910  0.23766  0.29675
E45   E   0.32910  0.76234  0.20325
E46   E   0.37500  0.43409  0.79590
E47   E   0.37500  0.45410  0.68409
E48   E   0.37500  0.54590  0.81591
E49   E   0.37500  0.56591  0.70410
E50   E   0.42090  0.04675  0.01234
E51   E   0.42090  0.95325  0.48766
E52   E   0.43409  0.20410  0.12500
E53   E   0.43409  0.79590  0.37500
E54   E   0.45325  0.01234  0.57910
E55   E   0.45325  0.98766  0.92090
E56   E   0.45410  0.31591  0.12500
E57   E   0.45410  0.68409  0.37500
E58   E   0.45531  0.50000  0.75000
E59   E   0.48766  0.42090  0.95325
E60   E   0.48766  0.57910  0.54675
E61   E   0.50000  0.25000  0.04469
E62   E   0.50000  0.25000  0.20531
E63   E   0.50000  0.75000  0.29469
E64   E   0.50000  0.75000  0.45531
E65   E   0.51234  0.07910  0.95325
E66   E   0.51234  0.92090  0.54675
E67   E   0.54469  0.00000  0.75000
E68   E   0.54590  0.18409  0.12500
E69   E   0.54590  0.81591  0.37500
E70   E   0.54675  0.48766  0.57910
E71   E   0.54675  0.51234  0.92090
E72   E   0.56591  0.29590  0.12500
E73   E   0.56591  0.70410  0.37500
E74   E   0.57910  0.45325  0.01234
E75   E   0.57910  0.54675  0.48766
E76   E   0.62500  0.04590  0.68409
E77   E   0.62500  0.06591  0.79590
E78   E   0.62500  0.93409  0.70410
E79   E   0.62500  0.95410  0.81591
E80   E   0.67090  0.26234  0.29675
E81   E   0.67090  0.73766  0.20325
E82   E   0.68409  0.37500  0.45410
E83   E   0.68409  0.62500  0.04590
E84   E   0.70325  0.17090  0.23766
E85   E   0.70325  0.82910  0.26234
E86   E   0.70410  0.37500  0.56591
E87   E   0.70410  0.62500  0.93409
E88   E   0.70531  0.00000  0.75000
E89   E   0.73766  0.20325  0.67090
E90   E   0.73766  0.79675  0.82910
E91   E   0.75000  0.29469  0.50000
E92   E   0.75000  0.45531  0.50000
E93   E   0.75000  0.54469  0.00000
E94   E   0.75000  0.70531  0.00000
E95   E   0.76234  0.20325  0.32910
E96   E   0.76234  0.79675  0.17090
E97   E   0.79469  0.00000  0.25000
E98   E   0.79590  0.37500  0.43409
E99   E   0.79590  0.62500  0.06591
E100  E   0.79675  0.17090  0.76234
E101  E   0.79675  0.82910  0.73766
E102  E   0.81591  0.37500  0.54590
E103  E   0.81591  0.62500  0.95410
E104  E   0.82910  0.26234  0.70325
E105  E   0.82910  0.73766  0.79675
E106  E   0.87500  0.04590  0.31591
E107  E   0.87500  0.06591  0.20410
E108  E   0.87500  0.93409  0.29590
E109  E   0.87500  0.95410  0.18409
E110  E   0.92090  0.45325  0.98766
E111  E   0.92090  0.54675  0.51234
E112  E   0.93409  0.29590  0.87500
E113  E   0.93409  0.70410  0.62500
E114  E   0.95325  0.48766  0.42090
E115  E   0.95325  0.51234  0.07910
E116  E   0.95410  0.18409  0.87500
E117  E   0.95410  0.81591  0.62500
E118  E   0.95531  0.00000  0.25000
E119  E   0.98766  0.07910  0.04675
E120  E   0.98766  0.92090  0.45325
loop_
