data_ctn-x_I-43d  hall_number: 516, V_con: 5, EC_con: 4
_audit_creation_date              2025-03-05
_audit_creation_method            'MOFbuilder_1.0'
_symmetry_space_group_name_H-M    'P1'
_symmetry_Int_Tables_number       1
_symmetry_cell_setting            triclinic
loop_
_symmetry_equiv_pos_as_xyz
  x,y,z
_cell_length_a                    23.0939
_cell_length_b                    23.0939
_cell_length_c                    23.0939
_cell_angle_alpha                 90.0
_cell_angle_beta                  90.0
_cell_angle_gamma                 90.0
loop_
_atom_site_label
_atom_site_type_symbol
_atom_site_fract_x
_atom_site_fract_y
_atom_site_fract_z
V1    V   0.01290  0.48710  0.51290
V2    V   0.01290  0.51290  0.98710
V3    V   0.23710  0.23710  0.23710
V4    V   0.23710  0.76290  0.26290
V5    V   0.26290  0.23710  0.76290
V6    V   0.26290  0.76290  0.73710
V7    V   0.48710  0.48710  0.48710
V8    V   0.48710  0.51290  0.01290
V9    V   0.51290  0.01290  0.48710
V10   V   0.51290  0.98710  0.01290
V11   V   0.73710  0.26290  0.76290
V12   V   0.73710  0.73710  0.73710
V13   V   0.76290  0.26290  0.23710
V14   V   0.76290  0.73710  0.26290
V15   V   0.98710  0.01290  0.51290
V16   V   0.98710  0.98710  0.98710
EC1    EC   0.00000  0.25000  0.87500
EC2    EC   0.00000  0.75000  0.62500
EC3    EC   0.12500  0.50000  0.25000
EC4    EC   0.25000  0.12500  0.50000
EC5    EC   0.25000  0.87500  0.00000
EC6    EC   0.37500  0.50000  0.75000
EC7    EC   0.50000  0.25000  0.12500
EC8    EC   0.50000  0.75000  0.37500
EC9    EC   0.62500  0.00000  0.75000
EC10   EC   0.75000  0.37500  0.50000
EC11   EC   0.75000  0.62500  0.00000
EC12   EC   0.87500  0.00000  0.25000
E1    E   0.00645  0.36855  0.69395
E2    E   0.00645  0.63145  0.80605
E3    E   0.05605  0.11855  0.24355
E4    E   0.05605  0.88145  0.25645
E5    E   0.11210  0.11210  0.11210
E6    E   0.11210  0.88790  0.38790
E7    E   0.11855  0.24355  0.05605
E8    E   0.11855  0.75645  0.44395
E9    E   0.13145  0.30605  0.50645
E10   E   0.13145  0.69395  0.99355
E11   E   0.13790  0.36210  0.63790
E12   E   0.13790  0.63790  0.86210
E13   E   0.19395  0.49355  0.63145
E14   E   0.19395  0.50645  0.86855
E15   E   0.24355  0.05605  0.11855
E16   E   0.24355  0.94395  0.38145
E17   E   0.25645  0.05605  0.88145
E18   E   0.25645  0.94395  0.61855
E19   E   0.30605  0.49355  0.36855
E20   E   0.30605  0.50645  0.13145
E21   E   0.36210  0.36210  0.36210
E22   E   0.36210  0.63790  0.13790
E23   E   0.36855  0.30605  0.49355
E24   E   0.36855  0.69395  0.00645
E25   E   0.38145  0.24355  0.94395
E26   E   0.38145  0.75645  0.55605
E27   E   0.38790  0.11210  0.88790
E28   E   0.38790  0.88790  0.61210
E29   E   0.44395  0.11855  0.75645
E30   E   0.44395  0.88145  0.74355
E31   E   0.49355  0.36855  0.30605
E32   E   0.49355  0.63145  0.19395
E33   E   0.50645  0.13145  0.30605
E34   E   0.50645  0.86855  0.19395
E35   E   0.55605  0.38145  0.75645
E36   E   0.55605  0.61855  0.74355
E37   E   0.61210  0.38790  0.88790
E38   E   0.61210  0.61210  0.61210
E39   E   0.61855  0.25645  0.94395
E40   E   0.61855  0.74355  0.55605
E41   E   0.63145  0.19395  0.49355
E42   E   0.63145  0.80605  0.00645
E43   E   0.63790  0.13790  0.36210
E44   E   0.63790  0.86210  0.13790
E45   E   0.69395  0.00645  0.36855
E46   E   0.69395  0.99355  0.13145
E47   E   0.74355  0.44395  0.88145
E48   E   0.74355  0.55605  0.61855
E49   E   0.75645  0.44395  0.11855
E50   E   0.75645  0.55605  0.38145
E51   E   0.80605  0.00645  0.63145
E52   E   0.80605  0.99355  0.86855
E53   E   0.86210  0.13790  0.63790
E54   E   0.86210  0.86210  0.86210
E55   E   0.86855  0.19395  0.50645
E56   E   0.86855  0.80605  0.99355
E57   E   0.88145  0.25645  0.05605
E58   E   0.88145  0.74355  0.44395
E59   E   0.88790  0.38790  0.11210
E60   E   0.88790  0.61210  0.38790
E61   E   0.94395  0.38145  0.24355
E62   E   0.94395  0.61855  0.25645
E63   E   0.99355  0.13145  0.69395
E64   E   0.99355  0.86855  0.80605
loop_
