data_dda_Fd-3m:2  hall_number: 526, V_con: 8, EC_con: 6
_audit_creation_date              2025-03-05
_audit_creation_method            'MOFbuilder_1.0'
_symmetry_space_group_name_H-M    'P1'
_symmetry_Int_Tables_number       1
_symmetry_cell_setting            triclinic
loop_
_symmetry_equiv_pos_as_xyz
  x,y,z
_cell_length_a                    75.6027
_cell_length_b                    75.6027
_cell_length_c                    75.6027
_cell_angle_alpha                 90.0
_cell_angle_beta                  90.0
_cell_angle_gamma                 90.0
loop_
_atom_site_label
_atom_site_type_symbol
_atom_site_fract_x
_atom_site_fract_y
_atom_site_fract_z
V1    V   0.03153  0.12500  0.62500
V2    V   0.03153  0.62500  0.12500
V3    V   0.12500  0.03153  0.62500
V4    V   0.12500  0.12500  0.53153
V5    V   0.12500  0.12500  0.71847
V6    V   0.12500  0.21847  0.62500
V7    V   0.12500  0.53153  0.12500
V8    V   0.12500  0.62500  0.03153
V9    V   0.12500  0.62500  0.21847
V10   V   0.12500  0.71847  0.12500
V11   V   0.21847  0.12500  0.62500
V12   V   0.21847  0.62500  0.12500
V13   V   0.28153  0.37500  0.37500
V14   V   0.28153  0.87500  0.87500
V15   V   0.37500  0.28153  0.37500
V16   V   0.37500  0.37500  0.28153
V17   V   0.37500  0.37500  0.46847
V18   V   0.37500  0.46847  0.37500
V19   V   0.37500  0.78153  0.87500
V20   V   0.37500  0.87500  0.78153
V21   V   0.37500  0.87500  0.96847
V22   V   0.37500  0.96847  0.87500
V23   V   0.46847  0.37500  0.37500
V24   V   0.46847  0.87500  0.87500
V25   V   0.53153  0.12500  0.12500
V26   V   0.53153  0.62500  0.62500
V27   V   0.62500  0.03153  0.12500
V28   V   0.62500  0.12500  0.03153
V29   V   0.62500  0.12500  0.21847
V30   V   0.62500  0.21847  0.12500
V31   V   0.62500  0.53153  0.62500
V32   V   0.62500  0.62500  0.53153
V33   V   0.62500  0.62500  0.71847
V34   V   0.62500  0.71847  0.62500
V35   V   0.71847  0.12500  0.12500
V36   V   0.71847  0.62500  0.62500
V37   V   0.78153  0.37500  0.87500
V38   V   0.78153  0.87500  0.37500
V39   V   0.87500  0.28153  0.87500
V40   V   0.87500  0.37500  0.78153
V41   V   0.87500  0.37500  0.96847
V42   V   0.87500  0.46847  0.87500
V43   V   0.87500  0.78153  0.37500
V44   V   0.87500  0.87500  0.28153
V45   V   0.87500  0.87500  0.46847
V46   V   0.87500  0.96847  0.37500
V47   V   0.96847  0.37500  0.87500
V48   V   0.96847  0.87500  0.37500
EC1    EC   0.00023  0.00023  0.59343
EC2    EC   0.00023  0.09343  0.50023
EC3    EC   0.00023  0.15657  0.74977
EC4    EC   0.00023  0.24977  0.65657
EC5    EC   0.00023  0.50023  0.09343
EC6    EC   0.00023  0.59343  0.00023
EC7    EC   0.00023  0.65657  0.24977
EC8    EC   0.00023  0.74977  0.15657
EC9    EC   0.00023  0.00023  0.59343
EC10   EC   0.00023  0.09343  0.50023
EC11   EC   0.00023  0.15657  0.74977
EC12   EC   0.00023  0.24977  0.65657
EC13   EC   0.00023  0.50023  0.09343
EC14   EC   0.00023  0.59343  0.00023
EC15   EC   0.00023  0.65657  0.24977
EC16   EC   0.00023  0.74977  0.15657
EC17   EC   0.09343  0.00023  0.50023
EC18   EC   0.09343  0.00023  0.50023
EC19   EC   0.09343  0.24977  0.74977
EC20   EC   0.09343  0.24977  0.74977
EC21   EC   0.09343  0.50023  0.00023
EC22   EC   0.09343  0.50023  0.00023
EC23   EC   0.09343  0.74977  0.24977
EC24   EC   0.09343  0.74977  0.24977
EC25   EC   0.15657  0.00023  0.74977
EC26   EC   0.15657  0.00023  0.74977
EC27   EC   0.15657  0.24977  0.50023
EC28   EC   0.15657  0.24977  0.50023
EC29   EC   0.15657  0.50023  0.24977
EC30   EC   0.15657  0.50023  0.24977
EC31   EC   0.15657  0.74977  0.00023
EC32   EC   0.15657  0.74977  0.00023
EC33   EC   0.24977  0.00023  0.65657
EC34   EC   0.24977  0.09343  0.74977
EC35   EC   0.24977  0.15657  0.50023
EC36   EC   0.24977  0.24977  0.59343
EC37   EC   0.24977  0.50023  0.15657
EC38   EC   0.24977  0.59343  0.24977
EC39   EC   0.24977  0.65657  0.00023
EC40   EC   0.24977  0.74977  0.09343
EC41   EC   0.24977  0.00023  0.65657
EC42   EC   0.24977  0.09343  0.74977
EC43   EC   0.24977  0.15657  0.50023
EC44   EC   0.24977  0.24977  0.59343
EC45   EC   0.24977  0.50023  0.15657
EC46   EC   0.24977  0.59343  0.24977
EC47   EC   0.24977  0.65657  0.00023
EC48   EC   0.24977  0.74977  0.09343
EC49   EC   0.25023  0.25023  0.40657
EC50   EC   0.25023  0.34343  0.49977
EC51   EC   0.25023  0.40657  0.25023
EC52   EC   0.25023  0.49977  0.34343
EC53   EC   0.25023  0.75023  0.90657
EC54   EC   0.25023  0.84343  0.99977
EC55   EC   0.25023  0.90657  0.75023
EC56   EC   0.25023  0.99977  0.84343
EC57   EC   0.25023  0.25023  0.40657
EC58   EC   0.25023  0.34343  0.49977
EC59   EC   0.25023  0.40657  0.25023
EC60   EC   0.25023  0.49977  0.34343
EC61   EC   0.25023  0.75023  0.90657
EC62   EC   0.25023  0.84343  0.99977
EC63   EC   0.25023  0.90657  0.75023
EC64   EC   0.25023  0.99977  0.84343
EC65   EC   0.34343  0.25023  0.49977
EC66   EC   0.34343  0.25023  0.49977
EC67   EC   0.34343  0.49977  0.25023
EC68   EC   0.34343  0.49977  0.25023
EC69   EC   0.34343  0.75023  0.99977
EC70   EC   0.34343  0.99977  0.75023
EC71   EC   0.40657  0.25023  0.25023
EC72   EC   0.40657  0.25023  0.25023
EC73   EC   0.40657  0.49977  0.49977
EC74   EC   0.40657  0.49977  0.49977
EC75   EC   0.40657  0.75023  0.75023
EC76   EC   0.40657  0.99977  0.99977
EC77   EC   0.49977  0.25023  0.34343
EC78   EC   0.49977  0.34343  0.25023
EC79   EC   0.49977  0.40657  0.49977
EC80   EC   0.49977  0.49977  0.40657
EC81   EC   0.49977  0.75023  0.84343
EC82   EC   0.49977  0.84343  0.75023
EC83   EC   0.49977  0.90657  0.99977
EC84   EC   0.49977  0.99977  0.90657
EC85   EC   0.49977  0.25023  0.34343
EC86   EC   0.49977  0.34343  0.25023
EC87   EC   0.49977  0.40657  0.49977
EC88   EC   0.49977  0.49977  0.40657
EC89   EC   0.49977  0.75023  0.84343
EC90   EC   0.49977  0.84343  0.75023
EC91   EC   0.49977  0.90657  0.99977
EC92   EC   0.49977  0.99977  0.90657
EC93   EC   0.50023  0.00023  0.09343
EC94   EC   0.50023  0.00023  0.09343
EC95   EC   0.50023  0.09343  0.00023
EC96   EC   0.50023  0.09343  0.00023
EC97   EC   0.50023  0.15657  0.24977
EC98   EC   0.50023  0.15657  0.24977
EC99   EC   0.50023  0.24977  0.15657
EC100  EC   0.50023  0.24977  0.15657
EC101  EC   0.50023  0.50023  0.59343
EC102  EC   0.50023  0.59343  0.50023
EC103  EC   0.50023  0.65657  0.74977
EC104  EC   0.50023  0.74977  0.65657
EC105  EC   0.59343  0.00023  0.00023
EC106  EC   0.59343  0.00023  0.00023
EC107  EC   0.59343  0.24977  0.24977
EC108  EC   0.59343  0.24977  0.24977
EC109  EC   0.59343  0.50023  0.50023
EC110  EC   0.59343  0.74977  0.74977
EC111  EC   0.65657  0.00023  0.24977
EC112  EC   0.65657  0.00023  0.24977
EC113  EC   0.65657  0.24977  0.00023
EC114  EC   0.65657  0.24977  0.00023
EC115  EC   0.65657  0.50023  0.74977
EC116  EC   0.65657  0.74977  0.50023
EC117  EC   0.74977  0.00023  0.15657
EC118  EC   0.74977  0.00023  0.15657
EC119  EC   0.74977  0.09343  0.24977
EC120  EC   0.74977  0.09343  0.24977
EC121  EC   0.74977  0.15657  0.00023
EC122  EC   0.74977  0.15657  0.00023
EC123  EC   0.74977  0.24977  0.09343
EC124  EC   0.74977  0.24977  0.09343
EC125  EC   0.74977  0.50023  0.65657
EC126  EC   0.74977  0.59343  0.74977
EC127  EC   0.74977  0.65657  0.50023
EC128  EC   0.74977  0.74977  0.59343
EC129  EC   0.75023  0.25023  0.90657
EC130  EC   0.75023  0.25023  0.90657
EC131  EC   0.75023  0.34343  0.99977
EC132  EC   0.75023  0.40657  0.75023
EC133  EC   0.75023  0.49977  0.84343
EC134  EC   0.75023  0.49977  0.84343
EC135  EC   0.75023  0.75023  0.40657
EC136  EC   0.75023  0.84343  0.49977
EC137  EC   0.75023  0.84343  0.49977
EC138  EC   0.75023  0.90657  0.25023
EC139  EC   0.75023  0.90657  0.25023
EC140  EC   0.75023  0.99977  0.34343
EC141  EC   0.84343  0.25023  0.99977
EC142  EC   0.84343  0.25023  0.99977
EC143  EC   0.84343  0.49977  0.75023
EC144  EC   0.84343  0.49977  0.75023
EC145  EC   0.84343  0.75023  0.49977
EC146  EC   0.84343  0.75023  0.49977
EC147  EC   0.84343  0.99977  0.25023
EC148  EC   0.84343  0.99977  0.25023
EC149  EC   0.90657  0.25023  0.75023
EC150  EC   0.90657  0.25023  0.75023
EC151  EC   0.90657  0.49977  0.99977
EC152  EC   0.90657  0.49977  0.99977
EC153  EC   0.90657  0.75023  0.25023
EC154  EC   0.90657  0.75023  0.25023
EC155  EC   0.90657  0.99977  0.49977
EC156  EC   0.90657  0.99977  0.49977
EC157  EC   0.99977  0.25023  0.84343
EC158  EC   0.99977  0.25023  0.84343
EC159  EC   0.99977  0.34343  0.75023
EC160  EC   0.99977  0.40657  0.99977
EC161  EC   0.99977  0.49977  0.90657
EC162  EC   0.99977  0.49977  0.90657
EC163  EC   0.99977  0.75023  0.34343
EC164  EC   0.99977  0.84343  0.25023
EC165  EC   0.99977  0.84343  0.25023
EC166  EC   0.99977  0.90657  0.49977
EC167  EC   0.99977  0.90657  0.49977
EC168  EC   0.99977  0.99977  0.40657
E1    E   0.00000  0.04660  0.45340
E2    E   0.00000  0.04660  0.45340
E3    E   0.00000  0.20340  0.79660
E4    E   0.00000  0.20340  0.79660
E5    E   0.00000  0.29660  0.70340
E6    E   0.00000  0.45340  0.04660
E7    E   0.00000  0.45340  0.04660
E8    E   0.00000  0.54660  0.95340
E9    E   0.00000  0.70340  0.29660
E10   E   0.00000  0.79660  0.20340
E11   E   0.00000  0.79660  0.20340
E12   E   0.00000  0.95340  0.54660
E13   E   0.00023  0.04683  0.54683
E14   E   0.00023  0.20317  0.70317
E15   E   0.00023  0.54683  0.04683
E16   E   0.00023  0.70317  0.20317
E17   E   0.01588  0.06262  0.60921
E18   E   0.01588  0.10921  0.56262
E19   E   0.01588  0.14079  0.68738
E20   E   0.01588  0.18738  0.64079
E21   E   0.01588  0.56262  0.10921
E22   E   0.01588  0.60921  0.06262
E23   E   0.01588  0.64079  0.18738
E24   E   0.01588  0.68738  0.14079
E25   E   0.04660  0.00000  0.45340
E26   E   0.04660  0.25000  0.79660
E27   E   0.04660  0.29660  0.75000
E28   E   0.04660  0.45340  0.00000
E29   E   0.04660  0.50000  0.95340
E30   E   0.04660  0.75000  0.29660
E31   E   0.04660  0.79660  0.25000
E32   E   0.04660  0.95340  0.50000
E33   E   0.04660  0.00000  0.45340
E34   E   0.04660  0.25000  0.79660
E35   E   0.04660  0.29660  0.75000
E36   E   0.04660  0.45340  0.00000
E37   E   0.04660  0.50000  0.95340
E38   E   0.04660  0.75000  0.29660
E39   E   0.04660  0.79660  0.25000
E40   E   0.04660  0.95340  0.50000
E41   E   0.04683  0.00023  0.54683
E42   E   0.04683  0.04683  0.50023
E43   E   0.04683  0.20317  0.74977
E44   E   0.04683  0.24977  0.70317
E45   E   0.04683  0.50023  0.04683
E46   E   0.04683  0.54683  0.00023
E47   E   0.04683  0.70317  0.24977
E48   E   0.04683  0.74977  0.20317
E49   E   0.06262  0.01588  0.60921
E50   E   0.06262  0.10921  0.51588
E51   E   0.06262  0.14079  0.73412
E52   E   0.06262  0.23412  0.64079
E53   E   0.06262  0.51588  0.10921
E54   E   0.06262  0.60921  0.01588
E55   E   0.06262  0.64079  0.23412
E56   E   0.06262  0.73412  0.14079
E57   E   0.07826  0.07826  0.62500
E58   E   0.07826  0.12500  0.57826
E59   E   0.07826  0.12500  0.67174
E60   E   0.07826  0.17174  0.62500
E61   E   0.07826  0.57826  0.12500
E62   E   0.07826  0.62500  0.07826
E63   E   0.07826  0.62500  0.17174
E64   E   0.07826  0.67174  0.12500
E65   E   0.10921  0.01588  0.56262
E66   E   0.10921  0.06262  0.51588
E67   E   0.10921  0.18738  0.73412
E68   E   0.10921  0.23412  0.68738
E69   E   0.10921  0.51588  0.06262
E70   E   0.10921  0.56262  0.01588
E71   E   0.10921  0.68738  0.23412
E72   E   0.10921  0.73412  0.18738
E73   E   0.12500  0.07826  0.57826
E74   E   0.12500  0.07826  0.67174
E75   E   0.12500  0.17174  0.57826
E76   E   0.12500  0.17174  0.67174
E77   E   0.12500  0.57826  0.07826
E78   E   0.12500  0.57826  0.17174
E79   E   0.12500  0.67174  0.07826
E80   E   0.12500  0.67174  0.17174
E81   E   0.14079  0.01588  0.68738
E82   E   0.14079  0.06262  0.73412
E83   E   0.14079  0.18738  0.51588
E84   E   0.14079  0.23412  0.56262
E85   E   0.14079  0.51588  0.18738
E86   E   0.14079  0.56262  0.23412
E87   E   0.14079  0.68738  0.01588
E88   E   0.14079  0.73412  0.06262
E89   E   0.17174  0.07826  0.62500
E90   E   0.17174  0.12500  0.57826
E91   E   0.17174  0.12500  0.67174
E92   E   0.17174  0.17174  0.62500
E93   E   0.17174  0.57826  0.12500
E94   E   0.17174  0.62500  0.07826
E95   E   0.17174  0.62500  0.17174
E96   E   0.17174  0.67174  0.12500
E97   E   0.18738  0.01588  0.64079
E98   E   0.18738  0.10921  0.73412
E99   E   0.18738  0.14079  0.51588
E100  E   0.18738  0.23412  0.60921
E101  E   0.18738  0.51588  0.14079
E102  E   0.18738  0.60921  0.23412
E103  E   0.18738  0.64079  0.01588
E104  E   0.18738  0.73412  0.10921
E105  E   0.20317  0.00023  0.70317
E106  E   0.20317  0.04683  0.74977
E107  E   0.20317  0.20317  0.50023
E108  E   0.20317  0.24977  0.54683
E109  E   0.20317  0.50023  0.20317
E110  E   0.20317  0.54683  0.24977
E111  E   0.20317  0.70317  0.00023
E112  E   0.20317  0.74977  0.04683
E113  E   0.20340  0.00000  0.79660
E114  E   0.20340  0.25000  0.45340
E115  E   0.20340  0.29660  0.50000
E116  E   0.20340  0.45340  0.25000
E117  E   0.20340  0.50000  0.29660
E118  E   0.20340  0.75000  0.95340
E119  E   0.20340  0.79660  0.00000
E120  E   0.20340  0.95340  0.75000
E121  E   0.20340  0.00000  0.79660
E122  E   0.20340  0.25000  0.45340
E123  E   0.20340  0.29660  0.50000
E124  E   0.20340  0.45340  0.25000
E125  E   0.20340  0.50000  0.29660
E126  E   0.20340  0.75000  0.95340
E127  E   0.20340  0.79660  0.00000
E128  E   0.20340  0.95340  0.75000
E129  E   0.23412  0.06262  0.64079
E130  E   0.23412  0.10921  0.68738
E131  E   0.23412  0.14079  0.56262
E132  E   0.23412  0.18738  0.60921
E133  E   0.23412  0.56262  0.14079
E134  E   0.23412  0.60921  0.18738
E135  E   0.23412  0.64079  0.06262
E136  E   0.23412  0.68738  0.10921
E137  E   0.24977  0.04683  0.70317
E138  E   0.24977  0.20317  0.54683
E139  E   0.24977  0.54683  0.20317
E140  E   0.24977  0.70317  0.04683
E141  E   0.25000  0.04660  0.79660
E142  E   0.25000  0.04660  0.79660
E143  E   0.25000  0.20340  0.45340
E144  E   0.25000  0.20340  0.45340
E145  E   0.25000  0.29660  0.54660
E146  E   0.25000  0.45340  0.20340
E147  E   0.25000  0.45340  0.20340
E148  E   0.25000  0.54660  0.29660
E149  E   0.25000  0.70340  0.95340
E150  E   0.25000  0.79660  0.04660
E151  E   0.25000  0.79660  0.04660
E152  E   0.25000  0.95340  0.70340
E153  E   0.25023  0.29683  0.45317
E154  E   0.25023  0.45317  0.29683
E155  E   0.25023  0.79683  0.95317
E156  E   0.25023  0.95317  0.79683
E157  E   0.26588  0.31262  0.39079
E158  E   0.26588  0.35921  0.43738
E159  E   0.26588  0.39079  0.31262
E160  E   0.26588  0.43738  0.35921
E161  E   0.26588  0.81262  0.89079
E162  E   0.26588  0.85921  0.93738
E163  E   0.26588  0.89079  0.81262
E164  E   0.26588  0.93738  0.85921
E165  E   0.29660  0.00000  0.70340
E166  E   0.29660  0.04660  0.75000
E167  E   0.29660  0.04660  0.75000
E168  E   0.29660  0.20340  0.50000
E169  E   0.29660  0.20340  0.50000
E170  E   0.29660  0.25000  0.54660
E171  E   0.29660  0.50000  0.20340
E172  E   0.29660  0.50000  0.20340
E173  E   0.29660  0.54660  0.25000
E174  E   0.29660  0.70340  0.00000
E175  E   0.29660  0.75000  0.04660
E176  E   0.29660  0.75000  0.04660
E177  E   0.29683  0.25023  0.45317
E178  E   0.29683  0.29683  0.49977
E179  E   0.29683  0.45317  0.25023
E180  E   0.29683  0.49977  0.29683
E181  E   0.29683  0.75023  0.95317
E182  E   0.29683  0.79683  0.99977
E183  E   0.29683  0.95317  0.75023
E184  E   0.29683  0.99977  0.79683
E185  E   0.31262  0.26588  0.39079
E186  E   0.31262  0.35921  0.48412
E187  E   0.31262  0.39079  0.26588
E188  E   0.31262  0.48412  0.35921
E189  E   0.31262  0.76588  0.89079
E190  E   0.31262  0.85921  0.98412
E191  E   0.31262  0.89079  0.76588
E192  E   0.31262  0.98412  0.85921
E193  E   0.32826  0.32826  0.37500
E194  E   0.32826  0.37500  0.32826
E195  E   0.32826  0.37500  0.42174
E196  E   0.32826  0.42174  0.37500
E197  E   0.32826  0.82826  0.87500
E198  E   0.32826  0.87500  0.82826
E199  E   0.32826  0.87500  0.92174
E200  E   0.32826  0.92174  0.87500
E201  E   0.35921  0.26588  0.43738
E202  E   0.35921  0.31262  0.48412
E203  E   0.35921  0.43738  0.26588
E204  E   0.35921  0.48412  0.31262
E205  E   0.35921  0.76588  0.93738
E206  E   0.35921  0.81262  0.98412
E207  E   0.35921  0.93738  0.76588
E208  E   0.35921  0.98412  0.81262
E209  E   0.37500  0.32826  0.32826
E210  E   0.37500  0.32826  0.42174
E211  E   0.37500  0.42174  0.32826
E212  E   0.37500  0.42174  0.42174
E213  E   0.37500  0.82826  0.82826
E214  E   0.37500  0.82826  0.92174
E215  E   0.37500  0.92174  0.82826
E216  E   0.37500  0.92174  0.92174
E217  E   0.39079  0.26588  0.31262
E218  E   0.39079  0.31262  0.26588
E219  E   0.39079  0.43738  0.48412
E220  E   0.39079  0.48412  0.43738
E221  E   0.39079  0.76588  0.81262
E222  E   0.39079  0.81262  0.76588
E223  E   0.39079  0.93738  0.98412
E224  E   0.39079  0.98412  0.93738
E225  E   0.42174  0.32826  0.37500
E226  E   0.42174  0.37500  0.32826
E227  E   0.42174  0.37500  0.42174
E228  E   0.42174  0.42174  0.37500
E229  E   0.42174  0.82826  0.87500
E230  E   0.42174  0.87500  0.82826
E231  E   0.42174  0.87500  0.92174
E232  E   0.42174  0.92174  0.87500
E233  E   0.43738  0.26588  0.35921
E234  E   0.43738  0.35921  0.26588
E235  E   0.43738  0.39079  0.48412
E236  E   0.43738  0.48412  0.39079
E237  E   0.43738  0.76588  0.85921
E238  E   0.43738  0.85921  0.76588
E239  E   0.43738  0.89079  0.98412
E240  E   0.43738  0.98412  0.89079
E241  E   0.45317  0.25023  0.29683
E242  E   0.45317  0.29683  0.25023
E243  E   0.45317  0.45317  0.49977
E244  E   0.45317  0.49977  0.45317
E245  E   0.45317  0.75023  0.79683
E246  E   0.45317  0.79683  0.75023
E247  E   0.45317  0.95317  0.99977
E248  E   0.45317  0.99977  0.95317
E249  E   0.45340  0.00000  0.04660
E250  E   0.45340  0.00000  0.04660
E251  E   0.45340  0.04660  0.00000
E252  E   0.45340  0.04660  0.00000
E253  E   0.45340  0.20340  0.25000
E254  E   0.45340  0.20340  0.25000
E255  E   0.45340  0.25000  0.20340
E256  E   0.45340  0.25000  0.20340
E257  E   0.45340  0.50000  0.54660
E258  E   0.45340  0.54660  0.50000
E259  E   0.45340  0.70340  0.75000
E260  E   0.45340  0.75000  0.70340
E261  E   0.48412  0.31262  0.35921
E262  E   0.48412  0.35921  0.31262
E263  E   0.48412  0.39079  0.43738
E264  E   0.48412  0.43738  0.39079
E265  E   0.48412  0.81262  0.85921
E266  E   0.48412  0.85921  0.81262
E267  E   0.48412  0.89079  0.93738
E268  E   0.48412  0.93738  0.89079
E269  E   0.49977  0.29683  0.29683
E270  E   0.49977  0.45317  0.45317
E271  E   0.49977  0.79683  0.79683
E272  E   0.49977  0.95317  0.95317
E273  E   0.50000  0.04660  0.95340
E274  E   0.50000  0.04660  0.95340
E275  E   0.50000  0.20340  0.29660
E276  E   0.50000  0.20340  0.29660
E277  E   0.50000  0.29660  0.20340
E278  E   0.50000  0.29660  0.20340
E279  E   0.50000  0.45340  0.54660
E280  E   0.50000  0.54660  0.45340
E281  E   0.50000  0.70340  0.79660
E282  E   0.50000  0.79660  0.70340
E283  E   0.50000  0.95340  0.04660
E284  E   0.50000  0.95340  0.04660
E285  E   0.50023  0.04683  0.04683
E286  E   0.50023  0.20317  0.20317
E287  E   0.50023  0.54683  0.54683
E288  E   0.50023  0.70317  0.70317
E289  E   0.51588  0.06262  0.10921
E290  E   0.51588  0.10921  0.06262
E291  E   0.51588  0.14079  0.18738
E292  E   0.51588  0.18738  0.14079
E293  E   0.51588  0.56262  0.60921
E294  E   0.51588  0.60921  0.56262
E295  E   0.51588  0.64079  0.68738
E296  E   0.51588  0.68738  0.64079
E297  E   0.54660  0.00000  0.95340
E298  E   0.54660  0.25000  0.29660
E299  E   0.54660  0.29660  0.25000
E300  E   0.54660  0.45340  0.50000
E301  E   0.54660  0.50000  0.45340
E302  E   0.54660  0.75000  0.79660
E303  E   0.54660  0.79660  0.75000
E304  E   0.54660  0.95340  0.00000
E305  E   0.54683  0.00023  0.04683
E306  E   0.54683  0.04683  0.00023
E307  E   0.54683  0.20317  0.24977
E308  E   0.54683  0.24977  0.20317
E309  E   0.54683  0.50023  0.54683
E310  E   0.54683  0.54683  0.50023
E311  E   0.54683  0.70317  0.74977
E312  E   0.54683  0.74977  0.70317
E313  E   0.56262  0.01588  0.10921
E314  E   0.56262  0.10921  0.01588
E315  E   0.56262  0.14079  0.23412
E316  E   0.56262  0.23412  0.14079
E317  E   0.56262  0.51588  0.60921
E318  E   0.56262  0.60921  0.51588
E319  E   0.56262  0.64079  0.73412
E320  E   0.56262  0.73412  0.64079
E321  E   0.57826  0.07826  0.12500
E322  E   0.57826  0.12500  0.07826
E323  E   0.57826  0.12500  0.17174
E324  E   0.57826  0.17174  0.12500
E325  E   0.57826  0.57826  0.62500
E326  E   0.57826  0.62500  0.57826
E327  E   0.57826  0.62500  0.67174
E328  E   0.57826  0.67174  0.62500
E329  E   0.60921  0.01588  0.06262
E330  E   0.60921  0.06262  0.01588
E331  E   0.60921  0.18738  0.23412
E332  E   0.60921  0.23412  0.18738
E333  E   0.60921  0.51588  0.56262
E334  E   0.60921  0.56262  0.51588
E335  E   0.60921  0.68738  0.73412
E336  E   0.60921  0.73412  0.68738
E337  E   0.62500  0.07826  0.07826
E338  E   0.62500  0.07826  0.17174
E339  E   0.62500  0.17174  0.07826
E340  E   0.62500  0.17174  0.17174
E341  E   0.62500  0.57826  0.57826
E342  E   0.62500  0.57826  0.67174
E343  E   0.62500  0.67174  0.57826
E344  E   0.62500  0.67174  0.67174
E345  E   0.64079  0.01588  0.18738
E346  E   0.64079  0.06262  0.23412
E347  E   0.64079  0.18738  0.01588
E348  E   0.64079  0.23412  0.06262
E349  E   0.64079  0.51588  0.68738
E350  E   0.64079  0.56262  0.73412
E351  E   0.64079  0.68738  0.51588
E352  E   0.64079  0.73412  0.56262
E353  E   0.67174  0.07826  0.12500
E354  E   0.67174  0.12500  0.07826
E355  E   0.67174  0.12500  0.17174
E356  E   0.67174  0.17174  0.12500
E357  E   0.67174  0.57826  0.62500
E358  E   0.67174  0.62500  0.57826
E359  E   0.67174  0.62500  0.67174
E360  E   0.67174  0.67174  0.62500
E361  E   0.68738  0.01588  0.14079
E362  E   0.68738  0.10921  0.23412
E363  E   0.68738  0.14079  0.01588
E364  E   0.68738  0.23412  0.10921
E365  E   0.68738  0.51588  0.64079
E366  E   0.68738  0.60921  0.73412
E367  E   0.68738  0.64079  0.51588
E368  E   0.68738  0.73412  0.60921
E369  E   0.70317  0.00023  0.20317
E370  E   0.70317  0.04683  0.24977
E371  E   0.70317  0.20317  0.00023
E372  E   0.70317  0.24977  0.04683
E373  E   0.70317  0.50023  0.70317
E374  E   0.70317  0.54683  0.74977
E375  E   0.70317  0.70317  0.50023
E376  E   0.70317  0.74977  0.54683
E377  E   0.70340  0.00000  0.29660
E378  E   0.70340  0.25000  0.95340
E379  E   0.70340  0.29660  0.00000
E380  E   0.70340  0.45340  0.75000
E381  E   0.70340  0.50000  0.79660
E382  E   0.70340  0.75000  0.45340
E383  E   0.70340  0.79660  0.50000
E384  E   0.70340  0.95340  0.25000
E385  E   0.73412  0.06262  0.14079
E386  E   0.73412  0.10921  0.18738
E387  E   0.73412  0.14079  0.06262
E388  E   0.73412  0.18738  0.10921
E389  E   0.73412  0.56262  0.64079
E390  E   0.73412  0.60921  0.68738
E391  E   0.73412  0.64079  0.56262
E392  E   0.73412  0.68738  0.60921
E393  E   0.74977  0.04683  0.20317
E394  E   0.74977  0.20317  0.04683
E395  E   0.74977  0.54683  0.70317
E396  E   0.74977  0.70317  0.54683
E397  E   0.75000  0.04660  0.29660
E398  E   0.75000  0.04660  0.29660
E399  E   0.75000  0.20340  0.95340
E400  E   0.75000  0.20340  0.95340
E401  E   0.75000  0.29660  0.04660
E402  E   0.75000  0.29660  0.04660
E403  E   0.75000  0.45340  0.70340
E404  E   0.75000  0.54660  0.79660
E405  E   0.75000  0.70340  0.45340
E406  E   0.75000  0.79660  0.54660
E407  E   0.75000  0.95340  0.20340
E408  E   0.75000  0.95340  0.20340
E409  E   0.75023  0.29683  0.95317
E410  E   0.75023  0.45317  0.79683
E411  E   0.75023  0.79683  0.45317
E412  E   0.75023  0.95317  0.29683
E413  E   0.76588  0.31262  0.89079
E414  E   0.76588  0.35921  0.93738
E415  E   0.76588  0.39079  0.81262
E416  E   0.76588  0.43738  0.85921
E417  E   0.76588  0.81262  0.39079
E418  E   0.76588  0.85921  0.43738
E419  E   0.76588  0.89079  0.31262
E420  E   0.76588  0.93738  0.35921
E421  E   0.79660  0.00000  0.20340
E422  E   0.79660  0.00000  0.20340
E423  E   0.79660  0.04660  0.25000
E424  E   0.79660  0.04660  0.25000
E425  E   0.79660  0.20340  0.00000
E426  E   0.79660  0.20340  0.00000
E427  E   0.79660  0.25000  0.04660
E428  E   0.79660  0.25000  0.04660
E429  E   0.79660  0.50000  0.70340
E430  E   0.79660  0.54660  0.75000
E431  E   0.79660  0.70340  0.50000
E432  E   0.79660  0.75000  0.54660
E433  E   0.79683  0.25023  0.95317
E434  E   0.79683  0.29683  0.99977
E435  E   0.79683  0.45317  0.75023
E436  E   0.79683  0.49977  0.79683
E437  E   0.79683  0.75023  0.45317
E438  E   0.79683  0.79683  0.49977
E439  E   0.79683  0.95317  0.25023
E440  E   0.79683  0.99977  0.29683
E441  E   0.81262  0.26588  0.89079
E442  E   0.81262  0.35921  0.98412
E443  E   0.81262  0.39079  0.76588
E444  E   0.81262  0.48412  0.85921
E445  E   0.81262  0.76588  0.39079
E446  E   0.81262  0.85921  0.48412
E447  E   0.81262  0.89079  0.26588
E448  E   0.81262  0.98412  0.35921
E449  E   0.82826  0.32826  0.87500
E450  E   0.82826  0.37500  0.82826
E451  E   0.82826  0.37500  0.92174
E452  E   0.82826  0.42174  0.87500
E453  E   0.82826  0.82826  0.37500
E454  E   0.82826  0.87500  0.32826
E455  E   0.82826  0.87500  0.42174
E456  E   0.82826  0.92174  0.37500
E457  E   0.85921  0.26588  0.93738
E458  E   0.85921  0.31262  0.98412
E459  E   0.85921  0.43738  0.76588
E460  E   0.85921  0.48412  0.81262
E461  E   0.85921  0.76588  0.43738
E462  E   0.85921  0.81262  0.48412
E463  E   0.85921  0.93738  0.26588
E464  E   0.85921  0.98412  0.31262
E465  E   0.87500  0.32826  0.82826
E466  E   0.87500  0.32826  0.92174
E467  E   0.87500  0.42174  0.82826
E468  E   0.87500  0.42174  0.92174
E469  E   0.87500  0.82826  0.32826
E470  E   0.87500  0.82826  0.42174
E471  E   0.87500  0.92174  0.32826
E472  E   0.87500  0.92174  0.42174
E473  E   0.89079  0.26588  0.81262
E474  E   0.89079  0.31262  0.76588
E475  E   0.89079  0.43738  0.98412
E476  E   0.89079  0.48412  0.93738
E477  E   0.89079  0.76588  0.31262
E478  E   0.89079  0.81262  0.26588
E479  E   0.89079  0.93738  0.48412
E480  E   0.89079  0.98412  0.43738
E481  E   0.92174  0.32826  0.87500
E482  E   0.92174  0.37500  0.82826
E483  E   0.92174  0.37500  0.92174
E484  E   0.92174  0.42174  0.87500
E485  E   0.92174  0.82826  0.37500
E486  E   0.92174  0.87500  0.32826
E487  E   0.92174  0.87500  0.42174
E488  E   0.92174  0.92174  0.37500
E489  E   0.93738  0.26588  0.85921
E490  E   0.93738  0.35921  0.76588
E491  E   0.93738  0.39079  0.98412
E492  E   0.93738  0.48412  0.89079
E493  E   0.93738  0.76588  0.35921
E494  E   0.93738  0.85921  0.26588
E495  E   0.93738  0.89079  0.48412
E496  E   0.93738  0.98412  0.39079
E497  E   0.95317  0.25023  0.79683
E498  E   0.95317  0.29683  0.75023
E499  E   0.95317  0.45317  0.99977
E500  E   0.95317  0.49977  0.95317
E501  E   0.95317  0.75023  0.29683
E502  E   0.95317  0.79683  0.25023
E503  E   0.95317  0.95317  0.49977
E504  E   0.95317  0.99977  0.45317
E505  E   0.95340  0.00000  0.54660
E506  E   0.95340  0.04660  0.50000
E507  E   0.95340  0.04660  0.50000
E508  E   0.95340  0.20340  0.75000
E509  E   0.95340  0.20340  0.75000
E510  E   0.95340  0.25000  0.70340
E511  E   0.95340  0.50000  0.04660
E512  E   0.95340  0.50000  0.04660
E513  E   0.95340  0.54660  0.00000
E514  E   0.95340  0.70340  0.25000
E515  E   0.95340  0.75000  0.20340
E516  E   0.95340  0.75000  0.20340
E517  E   0.98412  0.31262  0.85921
E518  E   0.98412  0.35921  0.81262
E519  E   0.98412  0.39079  0.93738
E520  E   0.98412  0.43738  0.89079
E521  E   0.98412  0.81262  0.35921
E522  E   0.98412  0.85921  0.31262
E523  E   0.98412  0.89079  0.43738
E524  E   0.98412  0.93738  0.39079
E525  E   0.99977  0.29683  0.79683
E526  E   0.99977  0.45317  0.95317
E527  E   0.99977  0.79683  0.29683
E528  E   0.99977  0.95317  0.45317
loop_
