data_ddb_Fd-3m:2  hall_number: 526, V_con: 7, EC_con: 6
_audit_creation_date              2025-03-05
_audit_creation_method            'MOFbuilder_1.0'
_symmetry_space_group_name_H-M    'P1'
_symmetry_Int_Tables_number       1
_symmetry_cell_setting            triclinic
loop_
_symmetry_equiv_pos_as_xyz
  x,y,z
_cell_length_a                    67.9359
_cell_length_b                    67.9359
_cell_length_c                    67.9359
_cell_angle_alpha                 90.0
_cell_angle_beta                  90.0
_cell_angle_gamma                 90.0
loop_
_atom_site_label
_atom_site_type_symbol
_atom_site_fract_x
_atom_site_fract_y
_atom_site_fract_z
V1    V   0.03132  0.32294  0.42706
V2    V   0.03132  0.42706  0.32294
V3    V   0.03132  0.82294  0.92706
V4    V   0.03132  0.92706  0.82294
V5    V   0.07294  0.07294  0.28132
V6    V   0.07294  0.17706  0.96868
V7    V   0.07294  0.28132  0.07294
V8    V   0.07294  0.46868  0.67706
V9    V   0.07294  0.57294  0.78132
V10   V   0.07294  0.67706  0.46868
V11   V   0.07294  0.78132  0.57294
V12   V   0.07294  0.96868  0.17706
V13   V   0.17706  0.07294  0.96868
V14   V   0.17706  0.17706  0.28132
V15   V   0.17706  0.28132  0.17706
V16   V   0.17706  0.46868  0.57294
V17   V   0.17706  0.57294  0.46868
V18   V   0.17706  0.67706  0.78132
V19   V   0.17706  0.78132  0.67706
V20   V   0.17706  0.96868  0.07294
V21   V   0.21868  0.32294  0.82294
V22   V   0.21868  0.42706  0.92706
V23   V   0.21868  0.82294  0.32294
V24   V   0.21868  0.92706  0.42706
V25   V   0.28132  0.07294  0.07294
V26   V   0.28132  0.17706  0.17706
V27   V   0.28132  0.57294  0.57294
V28   V   0.28132  0.67706  0.67706
V29   V   0.32294  0.03132  0.42706
V30   V   0.32294  0.21868  0.82294
V31   V   0.32294  0.32294  0.71868
V32   V   0.32294  0.42706  0.03132
V33   V   0.32294  0.53132  0.92706
V34   V   0.32294  0.71868  0.32294
V35   V   0.32294  0.82294  0.21868
V36   V   0.32294  0.92706  0.53132
V37   V   0.42706  0.03132  0.32294
V38   V   0.42706  0.21868  0.92706
V39   V   0.42706  0.32294  0.03132
V40   V   0.42706  0.42706  0.71868
V41   V   0.42706  0.53132  0.82294
V42   V   0.42706  0.71868  0.42706
V43   V   0.42706  0.82294  0.53132
V44   V   0.42706  0.92706  0.21868
V45   V   0.46868  0.07294  0.67706
V46   V   0.46868  0.17706  0.57294
V47   V   0.46868  0.57294  0.17706
V48   V   0.46868  0.67706  0.07294
V49   V   0.53132  0.32294  0.92706
V50   V   0.53132  0.42706  0.82294
V51   V   0.53132  0.82294  0.42706
V52   V   0.53132  0.92706  0.32294
V53   V   0.57294  0.07294  0.78132
V54   V   0.57294  0.17706  0.46868
V55   V   0.57294  0.28132  0.57294
V56   V   0.57294  0.46868  0.17706
V57   V   0.57294  0.57294  0.28132
V58   V   0.57294  0.67706  0.96868
V59   V   0.57294  0.78132  0.07294
V60   V   0.57294  0.96868  0.67706
V61   V   0.67706  0.07294  0.46868
V62   V   0.67706  0.17706  0.78132
V63   V   0.67706  0.28132  0.67706
V64   V   0.67706  0.46868  0.07294
V65   V   0.67706  0.57294  0.96868
V66   V   0.67706  0.67706  0.28132
V67   V   0.67706  0.78132  0.17706
V68   V   0.67706  0.96868  0.57294
V69   V   0.71868  0.32294  0.32294
V70   V   0.71868  0.42706  0.42706
V71   V   0.71868  0.82294  0.82294
V72   V   0.71868  0.92706  0.92706
V73   V   0.78132  0.07294  0.57294
V74   V   0.78132  0.17706  0.67706
V75   V   0.78132  0.57294  0.07294
V76   V   0.78132  0.67706  0.17706
V77   V   0.82294  0.03132  0.92706
V78   V   0.82294  0.21868  0.32294
V79   V   0.82294  0.32294  0.21868
V80   V   0.82294  0.42706  0.53132
V81   V   0.82294  0.53132  0.42706
V82   V   0.82294  0.71868  0.82294
V83   V   0.82294  0.82294  0.71868
V84   V   0.82294  0.92706  0.03132
V85   V   0.92706  0.03132  0.82294
V86   V   0.92706  0.21868  0.42706
V87   V   0.92706  0.32294  0.53132
V88   V   0.92706  0.42706  0.21868
V89   V   0.92706  0.53132  0.32294
V90   V   0.92706  0.71868  0.92706
V91   V   0.92706  0.82294  0.03132
V92   V   0.92706  0.92706  0.71868
V93   V   0.96868  0.07294  0.17706
V94   V   0.96868  0.17706  0.07294
V95   V   0.96868  0.57294  0.67706
V96   V   0.96868  0.67706  0.57294
EC1    EC   0.05969  0.05969  0.88056
EC2    EC   0.05969  0.19031  0.36944
EC3    EC   0.05969  0.36944  0.19031
EC4    EC   0.05969  0.38056  0.55969
EC5    EC   0.05969  0.55969  0.38056
EC6    EC   0.05969  0.69031  0.86944
EC7    EC   0.05969  0.86944  0.69031
EC8    EC   0.05969  0.88056  0.05969
EC9    EC   0.05969  0.05969  0.88056
EC10   EC   0.05969  0.19031  0.36944
EC11   EC   0.05969  0.36944  0.19031
EC12   EC   0.05969  0.38056  0.55969
EC13   EC   0.05969  0.55969  0.38056
EC14   EC   0.05969  0.69031  0.86944
EC15   EC   0.05969  0.86944  0.69031
EC16   EC   0.05969  0.88056  0.05969
EC17   EC   0.11944  0.30969  0.30969
EC18   EC   0.11944  0.44031  0.44031
EC19   EC   0.11944  0.80969  0.80969
EC20   EC   0.11944  0.94031  0.94031
EC21   EC   0.13056  0.30969  0.94031
EC22   EC   0.13056  0.44031  0.80969
EC23   EC   0.13056  0.80969  0.44031
EC24   EC   0.13056  0.94031  0.30969
EC25   EC   0.19031  0.05969  0.36944
EC26   EC   0.19031  0.05969  0.36944
EC27   EC   0.19031  0.19031  0.88056
EC28   EC   0.19031  0.36944  0.05969
EC29   EC   0.19031  0.36944  0.05969
EC30   EC   0.19031  0.38056  0.69031
EC31   EC   0.19031  0.55969  0.86944
EC32   EC   0.19031  0.69031  0.38056
EC33   EC   0.19031  0.86944  0.55969
EC34   EC   0.19031  0.88056  0.19031
EC35   EC   0.30969  0.11944  0.30969
EC36   EC   0.30969  0.13056  0.94031
EC37   EC   0.30969  0.30969  0.11944
EC38   EC   0.30969  0.44031  0.63056
EC39   EC   0.30969  0.61944  0.80969
EC40   EC   0.30969  0.63056  0.44031
EC41   EC   0.30969  0.80969  0.61944
EC42   EC   0.30969  0.94031  0.13056
EC43   EC   0.36944  0.05969  0.19031
EC44   EC   0.36944  0.05969  0.19031
EC45   EC   0.36944  0.19031  0.05969
EC46   EC   0.36944  0.19031  0.05969
EC47   EC   0.36944  0.55969  0.69031
EC48   EC   0.36944  0.69031  0.55969
EC49   EC   0.38056  0.05969  0.55969
EC50   EC   0.38056  0.05969  0.55969
EC51   EC   0.38056  0.19031  0.69031
EC52   EC   0.38056  0.55969  0.05969
EC53   EC   0.38056  0.55969  0.05969
EC54   EC   0.38056  0.69031  0.19031
EC55   EC   0.44031  0.11944  0.44031
EC56   EC   0.44031  0.13056  0.80969
EC57   EC   0.44031  0.30969  0.63056
EC58   EC   0.44031  0.44031  0.11944
EC59   EC   0.44031  0.61944  0.94031
EC60   EC   0.44031  0.63056  0.30969
EC61   EC   0.44031  0.80969  0.13056
EC62   EC   0.44031  0.94031  0.61944
EC63   EC   0.55969  0.05969  0.38056
EC64   EC   0.55969  0.05969  0.38056
EC65   EC   0.55969  0.19031  0.86944
EC66   EC   0.55969  0.36944  0.69031
EC67   EC   0.55969  0.38056  0.05969
EC68   EC   0.55969  0.38056  0.05969
EC69   EC   0.55969  0.55969  0.88056
EC70   EC   0.55969  0.69031  0.36944
EC71   EC   0.55969  0.86944  0.19031
EC72   EC   0.55969  0.88056  0.55969
EC73   EC   0.61944  0.30969  0.80969
EC74   EC   0.61944  0.44031  0.94031
EC75   EC   0.61944  0.80969  0.30969
EC76   EC   0.61944  0.94031  0.44031
EC77   EC   0.63056  0.30969  0.44031
EC78   EC   0.63056  0.44031  0.30969
EC79   EC   0.63056  0.80969  0.94031
EC80   EC   0.63056  0.94031  0.80969
EC81   EC   0.69031  0.05969  0.86944
EC82   EC   0.69031  0.05969  0.86944
EC83   EC   0.69031  0.19031  0.38056
EC84   EC   0.69031  0.36944  0.55969
EC85   EC   0.69031  0.38056  0.19031
EC86   EC   0.69031  0.55969  0.36944
EC87   EC   0.69031  0.69031  0.88056
EC88   EC   0.69031  0.86944  0.05969
EC89   EC   0.69031  0.86944  0.05969
EC90   EC   0.69031  0.88056  0.69031
EC91   EC   0.80969  0.11944  0.80969
EC92   EC   0.80969  0.13056  0.44031
EC93   EC   0.80969  0.30969  0.61944
EC94   EC   0.80969  0.44031  0.13056
EC95   EC   0.80969  0.61944  0.30969
EC96   EC   0.80969  0.63056  0.94031
EC97   EC   0.80969  0.80969  0.11944
EC98   EC   0.80969  0.94031  0.63056
EC99   EC   0.86944  0.05969  0.69031
EC100  EC   0.86944  0.05969  0.69031
EC101  EC   0.86944  0.19031  0.55969
EC102  EC   0.86944  0.55969  0.19031
EC103  EC   0.86944  0.69031  0.05969
EC104  EC   0.86944  0.69031  0.05969
EC105  EC   0.88056  0.05969  0.05969
EC106  EC   0.88056  0.05969  0.05969
EC107  EC   0.88056  0.19031  0.19031
EC108  EC   0.88056  0.55969  0.55969
EC109  EC   0.88056  0.69031  0.69031
EC110  EC   0.94031  0.11944  0.94031
EC111  EC   0.94031  0.13056  0.30969
EC112  EC   0.94031  0.30969  0.13056
EC113  EC   0.94031  0.44031  0.61944
EC114  EC   0.94031  0.61944  0.44031
EC115  EC   0.94031  0.63056  0.80969
EC116  EC   0.94031  0.80969  0.63056
EC117  EC   0.94031  0.94031  0.11944
E1    E   0.00000  0.08957  0.91043
E2    E   0.00000  0.08957  0.91043
E3    E   0.00000  0.16043  0.33957
E4    E   0.00000  0.33957  0.16043
E5    E   0.00000  0.41043  0.58957
E6    E   0.00000  0.41043  0.58957
E7    E   0.00000  0.58957  0.41043
E8    E   0.00000  0.58957  0.41043
E9    E   0.00000  0.66043  0.83957
E10   E   0.00000  0.66043  0.83957
E11   E   0.00000  0.83957  0.66043
E12   E   0.00000  0.83957  0.66043
E13   E   0.00000  0.91043  0.08957
E14   E   0.00000  0.91043  0.08957
E15   E   0.00662  0.10175  0.29551
E16   E   0.00662  0.14825  0.95449
E17   E   0.00662  0.29551  0.10175
E18   E   0.00662  0.45449  0.64825
E19   E   0.00662  0.60175  0.79551
E20   E   0.00662  0.64825  0.45449
E21   E   0.00662  0.79551  0.60175
E22   E   0.00662  0.95449  0.14825
E23   E   0.02081  0.02081  0.17706
E24   E   0.02081  0.07294  0.22919
E25   E   0.02081  0.17706  0.02081
E26   E   0.02081  0.22919  0.07294
E27   E   0.02081  0.52081  0.67706
E28   E   0.02081  0.57294  0.72919
E29   E   0.02081  0.67706  0.52081
E30   E   0.02081  0.72919  0.57294
E31   E   0.02081  0.02081  0.17706
E32   E   0.02081  0.07294  0.22919
E33   E   0.02081  0.17706  0.02081
E34   E   0.02081  0.22919  0.07294
E35   E   0.02081  0.52081  0.67706
E36   E   0.02081  0.57294  0.72919
E37   E   0.02081  0.67706  0.52081
E38   E   0.02081  0.72919  0.57294
E39   E   0.03132  0.37500  0.37500
E40   E   0.03132  0.87500  0.87500
E41   E   0.04551  0.25662  0.39825
E42   E   0.04551  0.35175  0.49338
E43   E   0.04551  0.39825  0.25662
E44   E   0.04551  0.49338  0.35175
E45   E   0.04551  0.75662  0.89825
E46   E   0.04551  0.85175  0.99338
E47   E   0.04551  0.89825  0.75662
E48   E   0.04551  0.99338  0.85175
E49   E   0.06632  0.11838  0.92462
E50   E   0.06632  0.13162  0.32538
E51   E   0.06632  0.32538  0.13162
E52   E   0.06632  0.42462  0.61838
E53   E   0.06632  0.61838  0.42462
E54   E   0.06632  0.63162  0.82538
E55   E   0.06632  0.82538  0.63162
E56   E   0.06632  0.92462  0.11838
E57   E   0.07294  0.02081  0.22919
E58   E   0.07294  0.02081  0.22919
E59   E   0.07294  0.22919  0.02081
E60   E   0.07294  0.22919  0.02081
E61   E   0.07294  0.52081  0.72919
E62   E   0.07294  0.72919  0.52081
E63   E   0.07538  0.31632  0.36838
E64   E   0.07538  0.36838  0.31632
E65   E   0.07538  0.38162  0.43368
E66   E   0.07538  0.43368  0.38162
E67   E   0.07538  0.81632  0.86838
E68   E   0.07538  0.86838  0.81632
E69   E   0.07538  0.88162  0.93368
E70   E   0.07538  0.93368  0.88162
E71   E   0.08957  0.00000  0.91043
E72   E   0.08957  0.25000  0.33957
E73   E   0.08957  0.33957  0.25000
E74   E   0.08957  0.41043  0.50000
E75   E   0.08957  0.50000  0.41043
E76   E   0.08957  0.75000  0.83957
E77   E   0.08957  0.83957  0.75000
E78   E   0.08957  0.91043  0.00000
E79   E   0.08957  0.00000  0.91043
E80   E   0.08957  0.25000  0.33957
E81   E   0.08957  0.33957  0.25000
E82   E   0.08957  0.41043  0.50000
E83   E   0.08957  0.50000  0.41043
E84   E   0.08957  0.75000  0.83957
E85   E   0.08957  0.83957  0.75000
E86   E   0.08957  0.91043  0.00000
E87   E   0.10175  0.00662  0.29551
E88   E   0.10175  0.24338  0.95449
E89   E   0.10175  0.29551  0.00662
E90   E   0.10175  0.45449  0.74338
E91   E   0.10175  0.50662  0.79551
E92   E   0.10175  0.74338  0.45449
E93   E   0.10175  0.79551  0.50662
E94   E   0.10175  0.95449  0.24338
E95   E   0.11838  0.06632  0.92462
E96   E   0.11838  0.18368  0.32538
E97   E   0.11838  0.32538  0.18368
E98   E   0.11838  0.42462  0.56632
E99   E   0.11838  0.56632  0.42462
E100  E   0.11838  0.68368  0.82538
E101  E   0.11838  0.82538  0.68368
E102  E   0.11838  0.92462  0.06632
E103  E   0.12500  0.12500  0.28132
E104  E   0.12500  0.12500  0.96868
E105  E   0.12500  0.28132  0.12500
E106  E   0.12500  0.46868  0.62500
E107  E   0.12500  0.62500  0.46868
E108  E   0.12500  0.62500  0.78132
E109  E   0.12500  0.78132  0.62500
E110  E   0.12500  0.96868  0.12500
E111  E   0.13162  0.06632  0.32538
E112  E   0.13162  0.18368  0.92462
E113  E   0.13162  0.32538  0.06632
E114  E   0.13162  0.42462  0.68368
E115  E   0.13162  0.56632  0.82538
E116  E   0.13162  0.68368  0.42462
E117  E   0.13162  0.82538  0.56632
E118  E   0.13162  0.92462  0.18368
E119  E   0.14825  0.00662  0.95449
E120  E   0.14825  0.24338  0.29551
E121  E   0.14825  0.29551  0.24338
E122  E   0.14825  0.45449  0.50662
E123  E   0.14825  0.50662  0.45449
E124  E   0.14825  0.74338  0.79551
E125  E   0.14825  0.79551  0.74338
E126  E   0.14825  0.95449  0.00662
E127  E   0.16043  0.00000  0.33957
E128  E   0.16043  0.25000  0.91043
E129  E   0.16043  0.25000  0.91043
E130  E   0.16043  0.33957  0.00000
E131  E   0.16043  0.41043  0.75000
E132  E   0.16043  0.50000  0.83957
E133  E   0.16043  0.50000  0.83957
E134  E   0.16043  0.75000  0.41043
E135  E   0.16043  0.83957  0.50000
E136  E   0.16043  0.83957  0.50000
E137  E   0.16043  0.91043  0.25000
E138  E   0.16043  0.91043  0.25000
E139  E   0.17462  0.31632  0.88162
E140  E   0.17462  0.36838  0.93368
E141  E   0.17462  0.38162  0.81632
E142  E   0.17462  0.43368  0.86838
E143  E   0.17462  0.81632  0.38162
E144  E   0.17462  0.86838  0.43368
E145  E   0.17462  0.88162  0.31632
E146  E   0.17462  0.93368  0.36838
E147  E   0.17706  0.02081  0.02081
E148  E   0.17706  0.02081  0.02081
E149  E   0.17706  0.22919  0.22919
E150  E   0.17706  0.52081  0.52081
E151  E   0.17706  0.72919  0.72919
E152  E   0.18368  0.11838  0.32538
E153  E   0.18368  0.13162  0.92462
E154  E   0.18368  0.32538  0.11838
E155  E   0.18368  0.42462  0.63162
E156  E   0.18368  0.61838  0.82538
E157  E   0.18368  0.63162  0.42462
E158  E   0.18368  0.82538  0.61838
E159  E   0.18368  0.92462  0.13162
E160  E   0.20449  0.25662  0.85175
E161  E   0.20449  0.35175  0.75662
E162  E   0.20449  0.39825  0.99338
E163  E   0.20449  0.49338  0.89825
E164  E   0.20449  0.75662  0.35175
E165  E   0.20449  0.85175  0.25662
E166  E   0.20449  0.89825  0.49338
E167  E   0.20449  0.99338  0.39825
E168  E   0.21868  0.37500  0.87500
E169  E   0.21868  0.87500  0.37500
E170  E   0.22919  0.02081  0.07294
E171  E   0.22919  0.02081  0.07294
E172  E   0.22919  0.07294  0.02081
E173  E   0.22919  0.07294  0.02081
E174  E   0.22919  0.17706  0.22919
E175  E   0.22919  0.22919  0.17706
E176  E   0.22919  0.52081  0.57294
E177  E   0.22919  0.57294  0.52081
E178  E   0.22919  0.67706  0.72919
E179  E   0.22919  0.72919  0.67706
E180  E   0.24338  0.10175  0.95449
E181  E   0.24338  0.14825  0.29551
E182  E   0.24338  0.29551  0.14825
E183  E   0.24338  0.45449  0.60175
E184  E   0.24338  0.60175  0.45449
E185  E   0.24338  0.64825  0.79551
E186  E   0.24338  0.79551  0.64825
E187  E   0.24338  0.95449  0.10175
E188  E   0.25000  0.08957  0.33957
E189  E   0.25000  0.08957  0.33957
E190  E   0.25000  0.16043  0.91043
E191  E   0.25000  0.16043  0.91043
E192  E   0.25000  0.33957  0.08957
E193  E   0.25000  0.33957  0.08957
E194  E   0.25000  0.41043  0.66043
E195  E   0.25000  0.41043  0.66043
E196  E   0.25000  0.58957  0.83957
E197  E   0.25000  0.58957  0.83957
E198  E   0.25000  0.66043  0.41043
E199  E   0.25000  0.66043  0.41043
E200  E   0.25000  0.83957  0.58957
E201  E   0.25000  0.83957  0.58957
E202  E   0.25000  0.91043  0.16043
E203  E   0.25000  0.91043  0.16043
E204  E   0.25662  0.04551  0.39825
E205  E   0.25662  0.20449  0.85175
E206  E   0.25662  0.35175  0.70449
E207  E   0.25662  0.39825  0.04551
E208  E   0.25662  0.54551  0.89825
E209  E   0.25662  0.70449  0.35175
E210  E   0.25662  0.85175  0.20449
E211  E   0.25662  0.89825  0.54551
E212  E   0.27081  0.27081  0.82294
E213  E   0.27081  0.32294  0.77081
E214  E   0.27081  0.42706  0.97919
E215  E   0.27081  0.47919  0.92706
E216  E   0.27081  0.77081  0.32294
E217  E   0.27081  0.82294  0.27081
E218  E   0.27081  0.92706  0.47919
E219  E   0.27081  0.97919  0.42706
E220  E   0.28132  0.12500  0.12500
E221  E   0.28132  0.62500  0.62500
E222  E   0.29551  0.00662  0.10175
E223  E   0.29551  0.10175  0.00662
E224  E   0.29551  0.14825  0.24338
E225  E   0.29551  0.24338  0.14825
E226  E   0.29551  0.50662  0.60175
E227  E   0.29551  0.60175  0.50662
E228  E   0.29551  0.64825  0.74338
E229  E   0.29551  0.74338  0.64825
E230  E   0.31632  0.07538  0.36838
E231  E   0.31632  0.17462  0.88162
E232  E   0.31632  0.36838  0.07538
E233  E   0.31632  0.38162  0.67462
E234  E   0.31632  0.57538  0.86838
E235  E   0.31632  0.67462  0.38162
E236  E   0.31632  0.86838  0.57538
E237  E   0.31632  0.88162  0.17462
E238  E   0.32294  0.27081  0.77081
E239  E   0.32294  0.47919  0.97919
E240  E   0.32294  0.77081  0.27081
E241  E   0.32294  0.97919  0.47919
E242  E   0.32538  0.06632  0.13162
E243  E   0.32538  0.11838  0.18368
E244  E   0.32538  0.13162  0.06632
E245  E   0.32538  0.18368  0.11838
E246  E   0.32538  0.56632  0.63162
E247  E   0.32538  0.61838  0.68368
E248  E   0.32538  0.63162  0.56632
E249  E   0.32538  0.68368  0.61838
E250  E   0.33957  0.00000  0.16043
E251  E   0.33957  0.08957  0.25000
E252  E   0.33957  0.08957  0.25000
E253  E   0.33957  0.16043  0.00000
E254  E   0.33957  0.25000  0.08957
E255  E   0.33957  0.25000  0.08957
E256  E   0.33957  0.50000  0.66043
E257  E   0.33957  0.50000  0.66043
E258  E   0.33957  0.58957  0.75000
E259  E   0.33957  0.58957  0.75000
E260  E   0.33957  0.66043  0.50000
E261  E   0.33957  0.66043  0.50000
E262  E   0.33957  0.75000  0.58957
E263  E   0.33957  0.75000  0.58957
E264  E   0.35175  0.04551  0.49338
E265  E   0.35175  0.20449  0.75662
E266  E   0.35175  0.25662  0.70449
E267  E   0.35175  0.49338  0.04551
E268  E   0.35175  0.54551  0.99338
E269  E   0.35175  0.70449  0.25662
E270  E   0.35175  0.75662  0.20449
E271  E   0.35175  0.99338  0.54551
E272  E   0.36838  0.07538  0.31632
E273  E   0.36838  0.17462  0.93368
E274  E   0.36838  0.31632  0.07538
E275  E   0.36838  0.43368  0.67462
E276  E   0.36838  0.57538  0.81632
E277  E   0.36838  0.67462  0.43368
E278  E   0.36838  0.81632  0.57538
E279  E   0.36838  0.93368  0.17462
E280  E   0.37500  0.03132  0.37500
E281  E   0.37500  0.21868  0.87500
E282  E   0.37500  0.37500  0.03132
E283  E   0.37500  0.37500  0.71868
E284  E   0.37500  0.53132  0.87500
E285  E   0.37500  0.71868  0.37500
E286  E   0.37500  0.87500  0.21868
E287  E   0.37500  0.87500  0.53132
E288  E   0.38162  0.07538  0.43368
E289  E   0.38162  0.17462  0.81632
E290  E   0.38162  0.31632  0.67462
E291  E   0.38162  0.43368  0.07538
E292  E   0.38162  0.57538  0.93368
E293  E   0.38162  0.67462  0.31632
E294  E   0.38162  0.81632  0.17462
E295  E   0.38162  0.93368  0.57538
E296  E   0.39825  0.04551  0.25662
E297  E   0.39825  0.20449  0.99338
E298  E   0.39825  0.25662  0.04551
E299  E   0.39825  0.49338  0.70449
E300  E   0.39825  0.54551  0.75662
E301  E   0.39825  0.70449  0.49338
E302  E   0.39825  0.75662  0.54551
E303  E   0.39825  0.99338  0.20449
E304  E   0.41043  0.00000  0.58957
E305  E   0.41043  0.00000  0.58957
E306  E   0.41043  0.08957  0.50000
E307  E   0.41043  0.08957  0.50000
E308  E   0.41043  0.16043  0.75000
E309  E   0.41043  0.25000  0.66043
E310  E   0.41043  0.25000  0.66043
E311  E   0.41043  0.50000  0.08957
E312  E   0.41043  0.50000  0.08957
E313  E   0.41043  0.58957  0.00000
E314  E   0.41043  0.58957  0.00000
E315  E   0.41043  0.66043  0.25000
E316  E   0.41043  0.66043  0.25000
E317  E   0.41043  0.75000  0.16043
E318  E   0.42462  0.06632  0.61838
E319  E   0.42462  0.11838  0.56632
E320  E   0.42462  0.13162  0.68368
E321  E   0.42462  0.18368  0.63162
E322  E   0.42462  0.56632  0.11838
E323  E   0.42462  0.61838  0.06632
E324  E   0.42462  0.63162  0.18368
E325  E   0.42462  0.68368  0.13162
E326  E   0.42706  0.27081  0.97919
E327  E   0.42706  0.47919  0.77081
E328  E   0.42706  0.77081  0.47919
E329  E   0.42706  0.97919  0.27081
E330  E   0.43368  0.07538  0.38162
E331  E   0.43368  0.17462  0.86838
E332  E   0.43368  0.36838  0.67462
E333  E   0.43368  0.38162  0.07538
E334  E   0.43368  0.57538  0.88162
E335  E   0.43368  0.67462  0.36838
E336  E   0.43368  0.86838  0.17462
E337  E   0.43368  0.88162  0.57538
E338  E   0.45449  0.00662  0.64825
E339  E   0.45449  0.10175  0.74338
E340  E   0.45449  0.14825  0.50662
E341  E   0.45449  0.24338  0.60175
E342  E   0.45449  0.50662  0.14825
E343  E   0.45449  0.60175  0.24338
E344  E   0.45449  0.64825  0.00662
E345  E   0.45449  0.74338  0.10175
E346  E   0.46868  0.12500  0.62500
E347  E   0.46868  0.62500  0.12500
E348  E   0.47919  0.27081  0.92706
E349  E   0.47919  0.32294  0.97919
E350  E   0.47919  0.42706  0.77081
E351  E   0.47919  0.47919  0.82294
E352  E   0.47919  0.77081  0.42706
E353  E   0.47919  0.82294  0.47919
E354  E   0.47919  0.92706  0.27081
E355  E   0.47919  0.97919  0.32294
E356  E   0.49338  0.04551  0.35175
E357  E   0.49338  0.20449  0.89825
E358  E   0.49338  0.35175  0.04551
E359  E   0.49338  0.39825  0.70449
E360  E   0.49338  0.54551  0.85175
E361  E   0.49338  0.70449  0.39825
E362  E   0.49338  0.85175  0.54551
E363  E   0.49338  0.89825  0.20449
E364  E   0.50000  0.08957  0.41043
E365  E   0.50000  0.08957  0.41043
E366  E   0.50000  0.16043  0.83957
E367  E   0.50000  0.16043  0.83957
E368  E   0.50000  0.33957  0.66043
E369  E   0.50000  0.33957  0.66043
E370  E   0.50000  0.41043  0.08957
E371  E   0.50000  0.41043  0.08957
E372  E   0.50000  0.58957  0.91043
E373  E   0.50000  0.58957  0.91043
E374  E   0.50000  0.66043  0.33957
E375  E   0.50000  0.66043  0.33957
E376  E   0.50000  0.83957  0.16043
E377  E   0.50000  0.83957  0.16043
E378  E   0.50000  0.91043  0.58957
E379  E   0.50000  0.91043  0.58957
E380  E   0.50662  0.10175  0.79551
E381  E   0.50662  0.14825  0.45449
E382  E   0.50662  0.29551  0.60175
E383  E   0.50662  0.45449  0.14825
E384  E   0.50662  0.60175  0.29551
E385  E   0.50662  0.64825  0.95449
E386  E   0.50662  0.79551  0.10175
E387  E   0.50662  0.95449  0.64825
E388  E   0.52081  0.02081  0.67706
E389  E   0.52081  0.02081  0.67706
E390  E   0.52081  0.07294  0.72919
E391  E   0.52081  0.17706  0.52081
E392  E   0.52081  0.22919  0.57294
E393  E   0.52081  0.52081  0.17706
E394  E   0.52081  0.57294  0.22919
E395  E   0.52081  0.67706  0.02081
E396  E   0.52081  0.67706  0.02081
E397  E   0.52081  0.72919  0.07294
E398  E   0.53132  0.37500  0.87500
E399  E   0.53132  0.87500  0.37500
E400  E   0.54551  0.25662  0.89825
E401  E   0.54551  0.35175  0.99338
E402  E   0.54551  0.39825  0.75662
E403  E   0.54551  0.49338  0.85175
E404  E   0.54551  0.75662  0.39825
E405  E   0.54551  0.85175  0.49338
E406  E   0.54551  0.89825  0.25662
E407  E   0.54551  0.99338  0.35175
E408  E   0.56632  0.11838  0.42462
E409  E   0.56632  0.13162  0.82538
E410  E   0.56632  0.32538  0.63162
E411  E   0.56632  0.42462  0.11838
E412  E   0.56632  0.61838  0.92462
E413  E   0.56632  0.63162  0.32538
E414  E   0.56632  0.82538  0.13162
E415  E   0.56632  0.92462  0.61838
E416  E   0.57294  0.02081  0.72919
E417  E   0.57294  0.02081  0.72919
E418  E   0.57294  0.22919  0.52081
E419  E   0.57294  0.52081  0.22919
E420  E   0.57294  0.72919  0.02081
E421  E   0.57294  0.72919  0.02081
E422  E   0.57538  0.31632  0.86838
E423  E   0.57538  0.36838  0.81632
E424  E   0.57538  0.38162  0.93368
E425  E   0.57538  0.43368  0.88162
E426  E   0.57538  0.81632  0.36838
E427  E   0.57538  0.86838  0.31632
E428  E   0.57538  0.88162  0.43368
E429  E   0.57538  0.93368  0.38162
E430  E   0.58957  0.00000  0.41043
E431  E   0.58957  0.25000  0.83957
E432  E   0.58957  0.33957  0.75000
E433  E   0.58957  0.41043  0.00000
E434  E   0.58957  0.50000  0.91043
E435  E   0.58957  0.75000  0.33957
E436  E   0.58957  0.83957  0.25000
E437  E   0.58957  0.91043  0.50000
E438  E   0.58957  0.00000  0.41043
E439  E   0.58957  0.25000  0.83957
E440  E   0.58957  0.33957  0.75000
E441  E   0.58957  0.41043  0.00000
E442  E   0.58957  0.50000  0.91043
E443  E   0.58957  0.75000  0.33957
E444  E   0.58957  0.83957  0.25000
E445  E   0.58957  0.91043  0.50000
E446  E   0.60175  0.00662  0.79551
E447  E   0.60175  0.24338  0.45449
E448  E   0.60175  0.29551  0.50662
E449  E   0.60175  0.45449  0.24338
E450  E   0.60175  0.50662  0.29551
E451  E   0.60175  0.74338  0.95449
E452  E   0.60175  0.79551  0.00662
E453  E   0.60175  0.95449  0.74338
E454  E   0.61838  0.06632  0.42462
E455  E   0.61838  0.18368  0.82538
E456  E   0.61838  0.32538  0.68368
E457  E   0.61838  0.42462  0.06632
E458  E   0.61838  0.56632  0.92462
E459  E   0.61838  0.68368  0.32538
E460  E   0.61838  0.82538  0.18368
E461  E   0.61838  0.92462  0.56632
E462  E   0.62500  0.12500  0.46868
E463  E   0.62500  0.12500  0.78132
E464  E   0.62500  0.28132  0.62500
E465  E   0.62500  0.46868  0.12500
E466  E   0.62500  0.62500  0.28132
E467  E   0.62500  0.62500  0.96868
E468  E   0.62500  0.78132  0.12500
E469  E   0.62500  0.96868  0.62500
E470  E   0.63162  0.06632  0.82538
E471  E   0.63162  0.18368  0.42462
E472  E   0.63162  0.32538  0.56632
E473  E   0.63162  0.42462  0.18368
E474  E   0.63162  0.56632  0.32538
E475  E   0.63162  0.68368  0.92462
E476  E   0.63162  0.82538  0.06632
E477  E   0.63162  0.92462  0.68368
E478  E   0.64825  0.00662  0.45449
E479  E   0.64825  0.24338  0.79551
E480  E   0.64825  0.29551  0.74338
E481  E   0.64825  0.45449  0.00662
E482  E   0.64825  0.50662  0.95449
E483  E   0.64825  0.74338  0.29551
E484  E   0.64825  0.79551  0.24338
E485  E   0.64825  0.95449  0.50662
E486  E   0.66043  0.00000  0.83957
E487  E   0.66043  0.25000  0.41043
E488  E   0.66043  0.33957  0.50000
E489  E   0.66043  0.41043  0.25000
E490  E   0.66043  0.50000  0.33957
E491  E   0.66043  0.75000  0.91043
E492  E   0.66043  0.83957  0.00000
E493  E   0.66043  0.91043  0.75000
E494  E   0.66043  0.00000  0.83957
E495  E   0.66043  0.25000  0.41043
E496  E   0.66043  0.33957  0.50000
E497  E   0.66043  0.41043  0.25000
E498  E   0.66043  0.50000  0.33957
E499  E   0.66043  0.75000  0.91043
E500  E   0.66043  0.83957  0.00000
E501  E   0.66043  0.91043  0.75000
E502  E   0.67462  0.31632  0.38162
E503  E   0.67462  0.36838  0.43368
E504  E   0.67462  0.38162  0.31632
E505  E   0.67462  0.43368  0.36838
E506  E   0.67462  0.81632  0.88162
E507  E   0.67462  0.86838  0.93368
E508  E   0.67462  0.88162  0.81632
E509  E   0.67462  0.93368  0.86838
E510  E   0.67706  0.02081  0.52081
E511  E   0.67706  0.02081  0.52081
E512  E   0.67706  0.22919  0.72919
E513  E   0.67706  0.52081  0.02081
E514  E   0.67706  0.52081  0.02081
E515  E   0.67706  0.72919  0.22919
E516  E   0.68368  0.11838  0.82538
E517  E   0.68368  0.13162  0.42462
E518  E   0.68368  0.32538  0.61838
E519  E   0.68368  0.42462  0.13162
E520  E   0.68368  0.61838  0.32538
E521  E   0.68368  0.63162  0.92462
E522  E   0.68368  0.82538  0.11838
E523  E   0.68368  0.92462  0.63162
E524  E   0.70449  0.25662  0.35175
E525  E   0.70449  0.35175  0.25662
E526  E   0.70449  0.39825  0.49338
E527  E   0.70449  0.49338  0.39825
E528  E   0.70449  0.75662  0.85175
E529  E   0.70449  0.85175  0.75662
E530  E   0.70449  0.89825  0.99338
E531  E   0.70449  0.99338  0.89825
E532  E   0.71868  0.37500  0.37500
E533  E   0.71868  0.87500  0.87500
E534  E   0.72919  0.02081  0.57294
E535  E   0.72919  0.02081  0.57294
E536  E   0.72919  0.07294  0.52081
E537  E   0.72919  0.17706  0.72919
E538  E   0.72919  0.22919  0.67706
E539  E   0.72919  0.52081  0.07294
E540  E   0.72919  0.57294  0.02081
E541  E   0.72919  0.57294  0.02081
E542  E   0.72919  0.67706  0.22919
E543  E   0.72919  0.72919  0.17706
E544  E   0.74338  0.10175  0.45449
E545  E   0.74338  0.14825  0.79551
E546  E   0.74338  0.29551  0.64825
E547  E   0.74338  0.45449  0.10175
E548  E   0.74338  0.60175  0.95449
E549  E   0.74338  0.64825  0.29551
E550  E   0.74338  0.79551  0.14825
E551  E   0.74338  0.95449  0.60175
E552  E   0.75000  0.08957  0.83957
E553  E   0.75000  0.08957  0.83957
E554  E   0.75000  0.16043  0.41043
E555  E   0.75000  0.33957  0.58957
E556  E   0.75000  0.33957  0.58957
E557  E   0.75000  0.41043  0.16043
E558  E   0.75000  0.58957  0.33957
E559  E   0.75000  0.58957  0.33957
E560  E   0.75000  0.66043  0.91043
E561  E   0.75000  0.66043  0.91043
E562  E   0.75000  0.83957  0.08957
E563  E   0.75000  0.83957  0.08957
E564  E   0.75000  0.91043  0.66043
E565  E   0.75000  0.91043  0.66043
E566  E   0.75662  0.04551  0.89825
E567  E   0.75662  0.20449  0.35175
E568  E   0.75662  0.35175  0.20449
E569  E   0.75662  0.39825  0.54551
E570  E   0.75662  0.54551  0.39825
E571  E   0.75662  0.70449  0.85175
E572  E   0.75662  0.85175  0.70449
E573  E   0.75662  0.89825  0.04551
E574  E   0.77081  0.27081  0.32294
E575  E   0.77081  0.32294  0.27081
E576  E   0.77081  0.42706  0.47919
E577  E   0.77081  0.47919  0.42706
E578  E   0.77081  0.77081  0.82294
E579  E   0.77081  0.82294  0.77081
E580  E   0.77081  0.92706  0.97919
E581  E   0.77081  0.97919  0.92706
E582  E   0.78132  0.12500  0.62500
E583  E   0.78132  0.62500  0.12500
E584  E   0.79551  0.00662  0.60175
E585  E   0.79551  0.10175  0.50662
E586  E   0.79551  0.14825  0.74338
E587  E   0.79551  0.24338  0.64825
E588  E   0.79551  0.50662  0.10175
E589  E   0.79551  0.60175  0.00662
E590  E   0.79551  0.64825  0.24338
E591  E   0.79551  0.74338  0.14825
E592  E   0.81632  0.07538  0.86838
E593  E   0.81632  0.17462  0.38162
E594  E   0.81632  0.36838  0.57538
E595  E   0.81632  0.38162  0.17462
E596  E   0.81632  0.57538  0.36838
E597  E   0.81632  0.67462  0.88162
E598  E   0.81632  0.86838  0.07538
E599  E   0.81632  0.88162  0.67462
E600  E   0.82294  0.27081  0.27081
E601  E   0.82294  0.47919  0.47919
E602  E   0.82294  0.77081  0.77081
E603  E   0.82294  0.97919  0.97919
E604  E   0.82538  0.06632  0.63162
E605  E   0.82538  0.11838  0.68368
E606  E   0.82538  0.13162  0.56632
E607  E   0.82538  0.18368  0.61838
E608  E   0.82538  0.56632  0.13162
E609  E   0.82538  0.61838  0.18368
E610  E   0.82538  0.63162  0.06632
E611  E   0.82538  0.68368  0.11838
E612  E   0.83957  0.00000  0.66043
E613  E   0.83957  0.08957  0.75000
E614  E   0.83957  0.16043  0.50000
E615  E   0.83957  0.25000  0.58957
E616  E   0.83957  0.50000  0.16043
E617  E   0.83957  0.58957  0.25000
E618  E   0.83957  0.66043  0.00000
E619  E   0.83957  0.75000  0.08957
E620  E   0.83957  0.00000  0.66043
E621  E   0.83957  0.08957  0.75000
E622  E   0.83957  0.16043  0.50000
E623  E   0.83957  0.25000  0.58957
E624  E   0.83957  0.50000  0.16043
E625  E   0.83957  0.58957  0.25000
E626  E   0.83957  0.66043  0.00000
E627  E   0.83957  0.75000  0.08957
E628  E   0.85175  0.04551  0.99338
E629  E   0.85175  0.20449  0.25662
E630  E   0.85175  0.25662  0.20449
E631  E   0.85175  0.49338  0.54551
E632  E   0.85175  0.54551  0.49338
E633  E   0.85175  0.70449  0.75662
E634  E   0.85175  0.75662  0.70449
E635  E   0.85175  0.99338  0.04551
E636  E   0.86838  0.07538  0.81632
E637  E   0.86838  0.17462  0.43368
E638  E   0.86838  0.31632  0.57538
E639  E   0.86838  0.43368  0.17462
E640  E   0.86838  0.57538  0.31632
E641  E   0.86838  0.67462  0.93368
E642  E   0.86838  0.81632  0.07538
E643  E   0.86838  0.93368  0.67462
E644  E   0.87500  0.03132  0.87500
E645  E   0.87500  0.21868  0.37500
E646  E   0.87500  0.37500  0.21868
E647  E   0.87500  0.37500  0.53132
E648  E   0.87500  0.53132  0.37500
E649  E   0.87500  0.71868  0.87500
E650  E   0.87500  0.87500  0.03132
E651  E   0.87500  0.87500  0.71868
E652  E   0.88162  0.07538  0.93368
E653  E   0.88162  0.17462  0.31632
E654  E   0.88162  0.31632  0.17462
E655  E   0.88162  0.43368  0.57538
E656  E   0.88162  0.57538  0.43368
E657  E   0.88162  0.67462  0.81632
E658  E   0.88162  0.81632  0.67462
E659  E   0.88162  0.93368  0.07538
E660  E   0.89825  0.04551  0.75662
E661  E   0.89825  0.20449  0.49338
E662  E   0.89825  0.25662  0.54551
E663  E   0.89825  0.49338  0.20449
E664  E   0.89825  0.54551  0.25662
E665  E   0.89825  0.70449  0.99338
E666  E   0.89825  0.75662  0.04551
E667  E   0.89825  0.99338  0.70449
E668  E   0.91043  0.00000  0.08957
E669  E   0.91043  0.08957  0.00000
E670  E   0.91043  0.16043  0.25000
E671  E   0.91043  0.25000  0.16043
E672  E   0.91043  0.50000  0.58957
E673  E   0.91043  0.58957  0.50000
E674  E   0.91043  0.66043  0.75000
E675  E   0.91043  0.75000  0.66043
E676  E   0.91043  0.00000  0.08957
E677  E   0.91043  0.08957  0.00000
E678  E   0.91043  0.16043  0.25000
E679  E   0.91043  0.25000  0.16043
E680  E   0.91043  0.50000  0.58957
E681  E   0.91043  0.58957  0.50000
E682  E   0.91043  0.66043  0.75000
E683  E   0.91043  0.75000  0.66043
E684  E   0.92462  0.06632  0.11838
E685  E   0.92462  0.11838  0.06632
E686  E   0.92462  0.13162  0.18368
E687  E   0.92462  0.18368  0.13162
E688  E   0.92462  0.56632  0.61838
E689  E   0.92462  0.61838  0.56632
E690  E   0.92462  0.63162  0.68368
E691  E   0.92462  0.68368  0.63162
E692  E   0.92706  0.27081  0.47919
E693  E   0.92706  0.47919  0.27081
E694  E   0.92706  0.77081  0.97919
E695  E   0.92706  0.97919  0.77081
E696  E   0.93368  0.07538  0.88162
E697  E   0.93368  0.17462  0.36838
E698  E   0.93368  0.36838  0.17462
E699  E   0.93368  0.38162  0.57538
E700  E   0.93368  0.57538  0.38162
E701  E   0.93368  0.67462  0.86838
E702  E   0.93368  0.86838  0.67462
E703  E   0.93368  0.88162  0.07538
E704  E   0.95449  0.00662  0.14825
E705  E   0.95449  0.10175  0.24338
E706  E   0.95449  0.14825  0.00662
E707  E   0.95449  0.24338  0.10175
E708  E   0.95449  0.50662  0.64825
E709  E   0.95449  0.60175  0.74338
E710  E   0.95449  0.64825  0.50662
E711  E   0.95449  0.74338  0.60175
E712  E   0.96868  0.12500  0.12500
E713  E   0.96868  0.62500  0.62500
E714  E   0.97919  0.27081  0.42706
E715  E   0.97919  0.32294  0.47919
E716  E   0.97919  0.42706  0.27081
E717  E   0.97919  0.47919  0.32294
E718  E   0.97919  0.77081  0.92706
E719  E   0.97919  0.82294  0.97919
E720  E   0.97919  0.92706  0.77081
E721  E   0.97919  0.97919  0.82294
E722  E   0.99338  0.04551  0.85175
E723  E   0.99338  0.20449  0.39825
E724  E   0.99338  0.35175  0.54551
E725  E   0.99338  0.39825  0.20449
E726  E   0.99338  0.54551  0.35175
E727  E   0.99338  0.70449  0.89825
E728  E   0.99338  0.85175  0.04551
E729  E   0.99338  0.89825  0.70449
loop_
