data_dgq_F4132  hall_number: 506, V_con: 8
_audit_creation_date              2025-03-05
_audit_creation_method            'MOFbuilder_1.0'
_symmetry_space_group_name_H-M    'P1'
_symmetry_Int_Tables_number       1
_symmetry_cell_setting            triclinic
loop_
_symmetry_equiv_pos_as_xyz
  x,y,z
_cell_length_a                    34.7509
_cell_length_b                    34.7509
_cell_length_c                    34.7509
_cell_angle_alpha                 90.0
_cell_angle_beta                  90.0
_cell_angle_gamma                 90.0
loop_
_atom_site_label
_atom_site_type_symbol
_atom_site_fract_x
_atom_site_fract_y
_atom_site_fract_z
V1    V   0.00748  0.24252  0.12500
V2    V   0.00748  0.25748  0.37500
V3    V   0.00748  0.74252  0.62500
V4    V   0.00748  0.75748  0.87500
V5    V   0.00748  0.24252  0.12500
V6    V   0.00748  0.25748  0.37500
V7    V   0.00748  0.74252  0.62500
V8    V   0.00748  0.75748  0.87500
V9    V   0.12500  0.00748  0.24252
V10   V   0.12500  0.00748  0.24252
V11   V   0.12500  0.49252  0.25748
V12   V   0.12500  0.50748  0.74252
V13   V   0.12500  0.50748  0.74252
V14   V   0.12500  0.99252  0.75748
V15   V   0.12500  0.99252  0.75748
V16   V   0.24252  0.12500  0.00748
V17   V   0.24252  0.12500  0.00748
V18   V   0.24252  0.37500  0.49252
V19   V   0.24252  0.62500  0.50748
V20   V   0.24252  0.62500  0.50748
V21   V   0.24252  0.87500  0.99252
V22   V   0.24252  0.87500  0.99252
V23   V   0.25748  0.12500  0.49252
V24   V   0.25748  0.37500  0.00748
V25   V   0.25748  0.37500  0.00748
V26   V   0.25748  0.62500  0.99252
V27   V   0.25748  0.62500  0.99252
V28   V   0.25748  0.87500  0.50748
V29   V   0.25748  0.87500  0.50748
V30   V   0.37500  0.00748  0.25748
V31   V   0.37500  0.00748  0.25748
V32   V   0.37500  0.49252  0.24252
V33   V   0.37500  0.50748  0.75748
V34   V   0.37500  0.50748  0.75748
V35   V   0.37500  0.99252  0.74252
V36   V   0.37500  0.99252  0.74252
V37   V   0.49252  0.24252  0.37500
V38   V   0.49252  0.25748  0.12500
V39   V   0.49252  0.74252  0.87500
V40   V   0.49252  0.74252  0.87500
V41   V   0.49252  0.75748  0.62500
V42   V   0.49252  0.75748  0.62500
V43   V   0.50748  0.24252  0.62500
V44   V   0.50748  0.25748  0.87500
V45   V   0.50748  0.74252  0.12500
V46   V   0.50748  0.75748  0.37500
V47   V   0.50748  0.24252  0.62500
V48   V   0.50748  0.25748  0.87500
V49   V   0.50748  0.74252  0.12500
V50   V   0.50748  0.75748  0.37500
V51   V   0.62500  0.00748  0.74252
V52   V   0.62500  0.00748  0.74252
V53   V   0.62500  0.49252  0.75748
V54   V   0.62500  0.49252  0.75748
V55   V   0.62500  0.50748  0.24252
V56   V   0.62500  0.50748  0.24252
V57   V   0.62500  0.99252  0.25748
V58   V   0.62500  0.99252  0.25748
V59   V   0.74252  0.12500  0.50748
V60   V   0.74252  0.37500  0.99252
V61   V   0.74252  0.62500  0.00748
V62   V   0.74252  0.87500  0.49252
V63   V   0.74252  0.12500  0.50748
V64   V   0.74252  0.37500  0.99252
V65   V   0.74252  0.62500  0.00748
V66   V   0.74252  0.87500  0.49252
V67   V   0.75748  0.12500  0.99252
V68   V   0.75748  0.37500  0.50748
V69   V   0.75748  0.62500  0.49252
V70   V   0.75748  0.87500  0.00748
V71   V   0.75748  0.12500  0.99252
V72   V   0.75748  0.37500  0.50748
V73   V   0.75748  0.62500  0.49252
V74   V   0.75748  0.87500  0.00748
V75   V   0.87500  0.00748  0.75748
V76   V   0.87500  0.00748  0.75748
V77   V   0.87500  0.49252  0.74252
V78   V   0.87500  0.49252  0.74252
V79   V   0.87500  0.50748  0.25748
V80   V   0.87500  0.50748  0.25748
V81   V   0.87500  0.99252  0.24252
V82   V   0.87500  0.99252  0.24252
V83   V   0.99252  0.24252  0.87500
V84   V   0.99252  0.25748  0.62500
V85   V   0.99252  0.74252  0.37500
V86   V   0.99252  0.75748  0.12500
V87   V   0.99252  0.24252  0.87500
V88   V   0.99252  0.25748  0.62500
V89   V   0.99252  0.74252  0.37500
V90   V   0.99252  0.75748  0.12500
E1    E   0.00000  0.00000  0.24252
E2    E   0.00000  0.00000  0.75748
E3    E   0.00000  0.24252  0.00000
E4    E   0.00000  0.25748  0.50000
E5    E   0.00000  0.50000  0.25748
E6    E   0.00000  0.50000  0.74252
E7    E   0.00000  0.74252  0.50000
E8    E   0.00000  0.75748  0.00000
E9    E   0.00748  0.25000  0.25000
E10   E   0.00748  0.75000  0.75000
E11   E   0.05876  0.11752  0.81624
E12   E   0.05876  0.38248  0.68376
E13   E   0.05876  0.61752  0.31624
E14   E   0.05876  0.88248  0.18376
E15   E   0.06624  0.12500  0.18376
E16   E   0.06624  0.13248  0.30876
E17   E   0.06624  0.36752  0.19124
E18   E   0.06624  0.37500  0.31624
E19   E   0.06624  0.62500  0.68376
E20   E   0.06624  0.63248  0.80876
E21   E   0.06624  0.86752  0.69124
E22   E   0.06624  0.87500  0.81624
E23   E   0.11752  0.18376  0.94124
E24   E   0.11752  0.31624  0.55876
E25   E   0.11752  0.68376  0.44124
E26   E   0.11752  0.81624  0.05876
E27   E   0.12500  0.18376  0.06624
E28   E   0.12500  0.31624  0.43376
E29   E   0.12500  0.68376  0.56624
E30   E   0.12500  0.81624  0.93376
E31   E   0.13248  0.19124  0.43376
E32   E   0.13248  0.30876  0.06624
E33   E   0.13248  0.69124  0.93376
E34   E   0.13248  0.80876  0.56624
E35   E   0.18376  0.05876  0.88248
E36   E   0.18376  0.06624  0.12500
E37   E   0.18376  0.43376  0.37500
E38   E   0.18376  0.44124  0.61752
E39   E   0.18376  0.55876  0.38248
E40   E   0.18376  0.56624  0.62500
E41   E   0.18376  0.93376  0.87500
E42   E   0.18376  0.94124  0.11752
E43   E   0.19124  0.06624  0.36752
E44   E   0.19124  0.43376  0.13248
E45   E   0.19124  0.56624  0.86752
E46   E   0.19124  0.93376  0.63248
E47   E   0.24252  0.00000  0.00000
E48   E   0.24252  0.50000  0.50000
E49   E   0.25000  0.00748  0.25000
E50   E   0.25000  0.25000  0.00748
E51   E   0.25000  0.25000  0.49252
E52   E   0.25000  0.49252  0.25000
E53   E   0.25000  0.50748  0.75000
E54   E   0.25000  0.75000  0.50748
E55   E   0.25000  0.75000  0.99252
E56   E   0.25000  0.99252  0.75000
E57   E   0.25748  0.00000  0.50000
E58   E   0.25748  0.50000  0.00000
E59   E   0.30876  0.06624  0.13248
E60   E   0.30876  0.43376  0.36752
E61   E   0.30876  0.56624  0.63248
E62   E   0.30876  0.93376  0.86752
E63   E   0.31624  0.05876  0.61752
E64   E   0.31624  0.06624  0.37500
E65   E   0.31624  0.43376  0.12500
E66   E   0.31624  0.44124  0.88248
E67   E   0.31624  0.55876  0.11752
E68   E   0.31624  0.56624  0.87500
E69   E   0.31624  0.93376  0.62500
E70   E   0.31624  0.94124  0.38248
E71   E   0.36752  0.19124  0.06624
E72   E   0.36752  0.30876  0.43376
E73   E   0.36752  0.69124  0.56624
E74   E   0.36752  0.80876  0.93376
E75   E   0.37500  0.18376  0.43376
E76   E   0.37500  0.31624  0.06624
E77   E   0.37500  0.68376  0.93376
E78   E   0.37500  0.81624  0.56624
E79   E   0.38248  0.18376  0.55876
E80   E   0.38248  0.31624  0.94124
E81   E   0.38248  0.68376  0.05876
E82   E   0.38248  0.81624  0.44124
E83   E   0.43376  0.12500  0.31624
E84   E   0.43376  0.13248  0.19124
E85   E   0.43376  0.36752  0.30876
E86   E   0.43376  0.37500  0.18376
E87   E   0.43376  0.62500  0.81624
E88   E   0.43376  0.63248  0.69124
E89   E   0.43376  0.86752  0.80876
E90   E   0.43376  0.87500  0.68376
E91   E   0.44124  0.11752  0.68376
E92   E   0.44124  0.38248  0.81624
E93   E   0.44124  0.61752  0.18376
E94   E   0.44124  0.88248  0.31624
E95   E   0.49252  0.25000  0.25000
E96   E   0.49252  0.75000  0.75000
E97   E   0.50000  0.00000  0.25748
E98   E   0.50000  0.00000  0.74252
E99   E   0.50000  0.24252  0.50000
E100  E   0.50000  0.25748  0.00000
E101  E   0.50000  0.50000  0.24252
E102  E   0.50000  0.50000  0.75748
E103  E   0.50000  0.74252  0.00000
E104  E   0.50000  0.75748  0.50000
E105  E   0.50748  0.25000  0.75000
E106  E   0.50748  0.75000  0.25000
E107  E   0.55876  0.11752  0.31624
E108  E   0.55876  0.38248  0.18376
E109  E   0.55876  0.61752  0.81624
E110  E   0.55876  0.88248  0.68376
E111  E   0.56624  0.12500  0.68376
E112  E   0.56624  0.13248  0.80876
E113  E   0.56624  0.36752  0.69124
E114  E   0.56624  0.37500  0.81624
E115  E   0.56624  0.62500  0.18376
E116  E   0.56624  0.63248  0.30876
E117  E   0.56624  0.86752  0.19124
E118  E   0.56624  0.87500  0.31624
E119  E   0.61752  0.18376  0.44124
E120  E   0.61752  0.31624  0.05876
E121  E   0.61752  0.68376  0.94124
E122  E   0.61752  0.81624  0.55876
E123  E   0.62500  0.18376  0.56624
E124  E   0.62500  0.31624  0.93376
E125  E   0.62500  0.68376  0.06624
E126  E   0.62500  0.81624  0.43376
E127  E   0.63248  0.19124  0.93376
E128  E   0.63248  0.30876  0.56624
E129  E   0.63248  0.69124  0.43376
E130  E   0.63248  0.80876  0.06624
E131  E   0.68376  0.05876  0.38248
E132  E   0.68376  0.06624  0.62500
E133  E   0.68376  0.43376  0.87500
E134  E   0.68376  0.44124  0.11752
E135  E   0.68376  0.55876  0.88248
E136  E   0.68376  0.56624  0.12500
E137  E   0.68376  0.93376  0.37500
E138  E   0.68376  0.94124  0.61752
E139  E   0.69124  0.06624  0.86752
E140  E   0.69124  0.43376  0.63248
E141  E   0.69124  0.56624  0.36752
E142  E   0.69124  0.93376  0.13248
E143  E   0.74252  0.00000  0.50000
E144  E   0.74252  0.50000  0.00000
E145  E   0.75000  0.00748  0.75000
E146  E   0.75000  0.25000  0.50748
E147  E   0.75000  0.25000  0.99252
E148  E   0.75000  0.49252  0.75000
E149  E   0.75000  0.50748  0.25000
E150  E   0.75000  0.75000  0.00748
E151  E   0.75000  0.75000  0.49252
E152  E   0.75000  0.99252  0.25000
E153  E   0.75748  0.00000  0.00000
E154  E   0.75748  0.50000  0.50000
E155  E   0.80876  0.06624  0.63248
E156  E   0.80876  0.43376  0.86752
E157  E   0.80876  0.56624  0.13248
E158  E   0.80876  0.93376  0.36752
E159  E   0.81624  0.05876  0.11752
E160  E   0.81624  0.06624  0.87500
E161  E   0.81624  0.43376  0.62500
E162  E   0.81624  0.44124  0.38248
E163  E   0.81624  0.55876  0.61752
E164  E   0.81624  0.56624  0.37500
E165  E   0.81624  0.93376  0.12500
E166  E   0.81624  0.94124  0.88248
E167  E   0.86752  0.19124  0.56624
E168  E   0.86752  0.30876  0.93376
E169  E   0.86752  0.69124  0.06624
E170  E   0.86752  0.80876  0.43376
E171  E   0.87500  0.18376  0.93376
E172  E   0.87500  0.31624  0.56624
E173  E   0.87500  0.68376  0.43376
E174  E   0.87500  0.81624  0.06624
E175  E   0.88248  0.18376  0.05876
E176  E   0.88248  0.31624  0.44124
E177  E   0.88248  0.68376  0.55876
E178  E   0.88248  0.81624  0.94124
E179  E   0.93376  0.12500  0.81624
E180  E   0.93376  0.13248  0.69124
E181  E   0.93376  0.36752  0.80876
E182  E   0.93376  0.37500  0.68376
E183  E   0.93376  0.62500  0.31624
E184  E   0.93376  0.63248  0.19124
E185  E   0.93376  0.86752  0.30876
E186  E   0.93376  0.87500  0.18376
E187  E   0.94124  0.11752  0.18376
E188  E   0.94124  0.38248  0.31624
E189  E   0.94124  0.61752  0.68376
E190  E   0.94124  0.88248  0.81624
E191  E   0.99252  0.25000  0.75000
E192  E   0.99252  0.75000  0.25000
loop_
