data_dia-j_Fd-3m:2  hall_number: 526, V_con: 6
_audit_creation_date              2025-03-05
_audit_creation_method            'MOFbuilder_1.0'
_symmetry_space_group_name_H-M    'P1'
_symmetry_Int_Tables_number       1
_symmetry_cell_setting            triclinic
loop_
_symmetry_equiv_pos_as_xyz
  x,y,z
_cell_length_a                    56.5685
_cell_length_b                    56.5685
_cell_length_c                    56.5685
_cell_angle_alpha                 90.0
_cell_angle_beta                  90.0
_cell_angle_gamma                 90.0
loop_
_atom_site_label
_atom_site_type_symbol
_atom_site_fract_x
_atom_site_fract_y
_atom_site_fract_z
V1    V   0.00000  0.00000  0.37500
V2    V   0.00000  0.00000  0.62500
V3    V   0.00000  0.12500  0.50000
V4    V   0.00000  0.12500  0.75000
V5    V   0.00000  0.25000  0.62500
V6    V   0.00000  0.25000  0.87500
V7    V   0.00000  0.37500  0.00000
V8    V   0.00000  0.37500  0.75000
V9    V   0.00000  0.50000  0.12500
V10   V   0.00000  0.50000  0.87500
V11   V   0.00000  0.62500  0.00000
V12   V   0.00000  0.62500  0.25000
V13   V   0.00000  0.75000  0.12500
V14   V   0.00000  0.75000  0.37500
V15   V   0.00000  0.87500  0.25000
V16   V   0.00000  0.87500  0.50000
V17   V   0.12500  0.00000  0.50000
V18   V   0.12500  0.00000  0.75000
V19   V   0.12500  0.25000  0.50000
V20   V   0.12500  0.25000  0.75000
V21   V   0.12500  0.50000  0.00000
V22   V   0.12500  0.50000  0.25000
V23   V   0.12500  0.75000  0.00000
V24   V   0.12500  0.75000  0.25000
V25   V   0.25000  0.00000  0.62500
V26   V   0.25000  0.00000  0.87500
V27   V   0.25000  0.12500  0.50000
V28   V   0.25000  0.12500  0.75000
V29   V   0.25000  0.25000  0.37500
V30   V   0.25000  0.25000  0.62500
V31   V   0.25000  0.37500  0.25000
V32   V   0.25000  0.37500  0.50000
V33   V   0.25000  0.50000  0.12500
V34   V   0.25000  0.50000  0.37500
V35   V   0.25000  0.62500  0.00000
V36   V   0.25000  0.62500  0.25000
V37   V   0.25000  0.75000  0.12500
V38   V   0.25000  0.75000  0.87500
V39   V   0.25000  0.87500  0.00000
V40   V   0.25000  0.87500  0.75000
V41   V   0.37500  0.00000  0.00000
V42   V   0.37500  0.00000  0.75000
V43   V   0.37500  0.25000  0.25000
V44   V   0.37500  0.25000  0.50000
V45   V   0.37500  0.50000  0.25000
V46   V   0.37500  0.50000  0.50000
V47   V   0.37500  0.75000  0.00000
V48   V   0.37500  0.75000  0.75000
V49   V   0.50000  0.00000  0.12500
V50   V   0.50000  0.00000  0.87500
V51   V   0.50000  0.12500  0.00000
V52   V   0.50000  0.12500  0.25000
V53   V   0.50000  0.25000  0.12500
V54   V   0.50000  0.25000  0.37500
V55   V   0.50000  0.37500  0.25000
V56   V   0.50000  0.37500  0.50000
V57   V   0.50000  0.50000  0.37500
V58   V   0.50000  0.50000  0.62500
V59   V   0.50000  0.62500  0.50000
V60   V   0.50000  0.62500  0.75000
V61   V   0.50000  0.75000  0.62500
V62   V   0.50000  0.75000  0.87500
V63   V   0.50000  0.87500  0.00000
V64   V   0.50000  0.87500  0.75000
V65   V   0.62500  0.00000  0.00000
V66   V   0.62500  0.00000  0.25000
V67   V   0.62500  0.25000  0.00000
V68   V   0.62500  0.25000  0.25000
V69   V   0.62500  0.50000  0.50000
V70   V   0.62500  0.50000  0.75000
V71   V   0.62500  0.75000  0.50000
V72   V   0.62500  0.75000  0.75000
V73   V   0.75000  0.00000  0.12500
V74   V   0.75000  0.00000  0.37500
V75   V   0.75000  0.12500  0.00000
V76   V   0.75000  0.12500  0.25000
V77   V   0.75000  0.25000  0.12500
V78   V   0.75000  0.25000  0.87500
V79   V   0.75000  0.37500  0.00000
V80   V   0.75000  0.37500  0.75000
V81   V   0.75000  0.50000  0.62500
V82   V   0.75000  0.50000  0.87500
V83   V   0.75000  0.62500  0.50000
V84   V   0.75000  0.62500  0.75000
V85   V   0.75000  0.75000  0.37500
V86   V   0.75000  0.75000  0.62500
V87   V   0.75000  0.87500  0.25000
V88   V   0.75000  0.87500  0.50000
V89   V   0.87500  0.00000  0.25000
V90   V   0.87500  0.00000  0.50000
V91   V   0.87500  0.25000  0.00000
V92   V   0.87500  0.25000  0.75000
V93   V   0.87500  0.50000  0.00000
V94   V   0.87500  0.50000  0.75000
V95   V   0.87500  0.75000  0.25000
V96   V   0.87500  0.75000  0.50000
E1    E   0.00000  0.06250  0.43750
E2    E   0.00000  0.06250  0.56250
E3    E   0.00000  0.06250  0.68750
E4    E   0.00000  0.18750  0.56250
E5    E   0.00000  0.18750  0.68750
E6    E   0.00000  0.18750  0.81250
E7    E   0.00000  0.31250  0.68750
E8    E   0.00000  0.31250  0.81250
E9    E   0.00000  0.31250  0.93750
E10   E   0.00000  0.43750  0.06250
E11   E   0.00000  0.43750  0.81250
E12   E   0.00000  0.43750  0.93750
E13   E   0.00000  0.56250  0.06250
E14   E   0.00000  0.56250  0.18750
E15   E   0.00000  0.56250  0.93750
E16   E   0.00000  0.68750  0.06250
E17   E   0.00000  0.68750  0.18750
E18   E   0.00000  0.68750  0.31250
E19   E   0.00000  0.81250  0.18750
E20   E   0.00000  0.81250  0.31250
E21   E   0.00000  0.81250  0.43750
E22   E   0.00000  0.93750  0.31250
E23   E   0.00000  0.93750  0.43750
E24   E   0.00000  0.93750  0.56250
E25   E   0.06250  0.00000  0.43750
E26   E   0.06250  0.00000  0.56250
E27   E   0.06250  0.00000  0.68750
E28   E   0.06250  0.06250  0.50000
E29   E   0.06250  0.06250  0.75000
E30   E   0.06250  0.18750  0.50000
E31   E   0.06250  0.18750  0.75000
E32   E   0.06250  0.25000  0.56250
E33   E   0.06250  0.25000  0.68750
E34   E   0.06250  0.25000  0.81250
E35   E   0.06250  0.31250  0.75000
E36   E   0.06250  0.43750  0.00000
E37   E   0.06250  0.50000  0.06250
E38   E   0.06250  0.50000  0.18750
E39   E   0.06250  0.50000  0.93750
E40   E   0.06250  0.56250  0.00000
E41   E   0.06250  0.56250  0.25000
E42   E   0.06250  0.68750  0.00000
E43   E   0.06250  0.68750  0.25000
E44   E   0.06250  0.75000  0.06250
E45   E   0.06250  0.75000  0.18750
E46   E   0.06250  0.75000  0.31250
E47   E   0.06250  0.81250  0.25000
E48   E   0.06250  0.93750  0.50000
E49   E   0.18750  0.00000  0.56250
E50   E   0.18750  0.00000  0.68750
E51   E   0.18750  0.00000  0.81250
E52   E   0.18750  0.06250  0.50000
E53   E   0.18750  0.06250  0.75000
E54   E   0.18750  0.18750  0.50000
E55   E   0.18750  0.18750  0.75000
E56   E   0.18750  0.25000  0.43750
E57   E   0.18750  0.25000  0.56250
E58   E   0.18750  0.25000  0.68750
E59   E   0.18750  0.31250  0.50000
E60   E   0.18750  0.43750  0.25000
E61   E   0.18750  0.50000  0.06250
E62   E   0.18750  0.50000  0.18750
E63   E   0.18750  0.50000  0.31250
E64   E   0.18750  0.56250  0.00000
E65   E   0.18750  0.56250  0.25000
E66   E   0.18750  0.68750  0.00000
E67   E   0.18750  0.68750  0.25000
E68   E   0.18750  0.75000  0.06250
E69   E   0.18750  0.75000  0.18750
E70   E   0.18750  0.75000  0.93750
E71   E   0.18750  0.81250  0.00000
E72   E   0.18750  0.93750  0.75000
E73   E   0.25000  0.06250  0.56250
E74   E   0.25000  0.06250  0.68750
E75   E   0.25000  0.06250  0.81250
E76   E   0.25000  0.18750  0.43750
E77   E   0.25000  0.18750  0.56250
E78   E   0.25000  0.18750  0.68750
E79   E   0.25000  0.31250  0.31250
E80   E   0.25000  0.31250  0.43750
E81   E   0.25000  0.31250  0.56250
E82   E   0.25000  0.43750  0.18750
E83   E   0.25000  0.43750  0.31250
E84   E   0.25000  0.43750  0.43750
E85   E   0.25000  0.56250  0.06250
E86   E   0.25000  0.56250  0.18750
E87   E   0.25000  0.56250  0.31250
E88   E   0.25000  0.68750  0.06250
E89   E   0.25000  0.68750  0.18750
E90   E   0.25000  0.68750  0.93750
E91   E   0.25000  0.81250  0.06250
E92   E   0.25000  0.81250  0.81250
E93   E   0.25000  0.81250  0.93750
E94   E   0.25000  0.93750  0.68750
E95   E   0.25000  0.93750  0.81250
E96   E   0.25000  0.93750  0.93750
E97   E   0.31250  0.00000  0.68750
E98   E   0.31250  0.00000  0.81250
E99   E   0.31250  0.00000  0.93750
E100  E   0.31250  0.06250  0.75000
E101  E   0.31250  0.18750  0.50000
E102  E   0.31250  0.25000  0.31250
E103  E   0.31250  0.25000  0.43750
E104  E   0.31250  0.25000  0.56250
E105  E   0.31250  0.31250  0.25000
E106  E   0.31250  0.31250  0.50000
E107  E   0.31250  0.43750  0.25000
E108  E   0.31250  0.43750  0.50000
E109  E   0.31250  0.50000  0.18750
E110  E   0.31250  0.50000  0.31250
E111  E   0.31250  0.50000  0.43750
E112  E   0.31250  0.56250  0.25000
E113  E   0.31250  0.68750  0.00000
E114  E   0.31250  0.75000  0.06250
E115  E   0.31250  0.75000  0.81250
E116  E   0.31250  0.75000  0.93750
E117  E   0.31250  0.81250  0.00000
E118  E   0.31250  0.81250  0.75000
E119  E   0.31250  0.93750  0.00000
E120  E   0.31250  0.93750  0.75000
E121  E   0.43750  0.00000  0.06250
E122  E   0.43750  0.00000  0.81250
E123  E   0.43750  0.00000  0.93750
E124  E   0.43750  0.06250  0.00000
E125  E   0.43750  0.18750  0.25000
E126  E   0.43750  0.25000  0.18750
E127  E   0.43750  0.25000  0.31250
E128  E   0.43750  0.25000  0.43750
E129  E   0.43750  0.31250  0.25000
E130  E   0.43750  0.31250  0.50000
E131  E   0.43750  0.43750  0.25000
E132  E   0.43750  0.43750  0.50000
E133  E   0.43750  0.50000  0.31250
E134  E   0.43750  0.50000  0.43750
E135  E   0.43750  0.50000  0.56250
E136  E   0.43750  0.56250  0.50000
E137  E   0.43750  0.68750  0.75000
E138  E   0.43750  0.75000  0.68750
E139  E   0.43750  0.75000  0.81250
E140  E   0.43750  0.75000  0.93750
E141  E   0.43750  0.81250  0.00000
E142  E   0.43750  0.81250  0.75000
E143  E   0.43750  0.93750  0.00000
E144  E   0.43750  0.93750  0.75000
E145  E   0.50000  0.06250  0.06250
E146  E   0.50000  0.06250  0.18750
E147  E   0.50000  0.06250  0.93750
E148  E   0.50000  0.18750  0.06250
E149  E   0.50000  0.18750  0.18750
E150  E   0.50000  0.18750  0.31250
E151  E   0.50000  0.31250  0.18750
E152  E   0.50000  0.31250  0.31250
E153  E   0.50000  0.31250  0.43750
E154  E   0.50000  0.43750  0.31250
E155  E   0.50000  0.43750  0.43750
E156  E   0.50000  0.43750  0.56250
E157  E   0.50000  0.56250  0.43750
E158  E   0.50000  0.56250  0.56250
E159  E   0.50000  0.56250  0.68750
E160  E   0.50000  0.68750  0.56250
E161  E   0.50000  0.68750  0.68750
E162  E   0.50000  0.68750  0.81250
E163  E   0.50000  0.81250  0.68750
E164  E   0.50000  0.81250  0.81250
E165  E   0.50000  0.81250  0.93750
E166  E   0.50000  0.93750  0.06250
E167  E   0.50000  0.93750  0.81250
E168  E   0.50000  0.93750  0.93750
E169  E   0.56250  0.00000  0.06250
E170  E   0.56250  0.00000  0.18750
E171  E   0.56250  0.00000  0.93750
E172  E   0.56250  0.06250  0.00000
E173  E   0.56250  0.06250  0.25000
E174  E   0.56250  0.18750  0.00000
E175  E   0.56250  0.18750  0.25000
E176  E   0.56250  0.25000  0.06250
E177  E   0.56250  0.25000  0.18750
E178  E   0.56250  0.25000  0.31250
E179  E   0.56250  0.31250  0.25000
E180  E   0.56250  0.43750  0.50000
E181  E   0.56250  0.50000  0.43750
E182  E   0.56250  0.50000  0.56250
E183  E   0.56250  0.50000  0.68750
E184  E   0.56250  0.56250  0.50000
E185  E   0.56250  0.56250  0.75000
E186  E   0.56250  0.68750  0.50000
E187  E   0.56250  0.68750  0.75000
E188  E   0.56250  0.75000  0.56250
E189  E   0.56250  0.75000  0.68750
E190  E   0.56250  0.75000  0.81250
E191  E   0.56250  0.81250  0.75000
E192  E   0.56250  0.93750  0.00000
E193  E   0.68750  0.00000  0.06250
E194  E   0.68750  0.00000  0.18750
E195  E   0.68750  0.00000  0.31250
E196  E   0.68750  0.06250  0.00000
E197  E   0.68750  0.06250  0.25000
E198  E   0.68750  0.18750  0.00000
E199  E   0.68750  0.18750  0.25000
E200  E   0.68750  0.25000  0.06250
E201  E   0.68750  0.25000  0.18750
E202  E   0.68750  0.25000  0.93750
E203  E   0.68750  0.31250  0.00000
E204  E   0.68750  0.43750  0.75000
E205  E   0.68750  0.50000  0.56250
E206  E   0.68750  0.50000  0.68750
E207  E   0.68750  0.50000  0.81250
E208  E   0.68750  0.56250  0.50000
E209  E   0.68750  0.56250  0.75000
E210  E   0.68750  0.68750  0.50000
E211  E   0.68750  0.68750  0.75000
E212  E   0.68750  0.75000  0.43750
E213  E   0.68750  0.75000  0.56250
E214  E   0.68750  0.75000  0.68750
E215  E   0.68750  0.81250  0.50000
E216  E   0.68750  0.93750  0.25000
E217  E   0.75000  0.06250  0.06250
E218  E   0.75000  0.06250  0.18750
E219  E   0.75000  0.06250  0.31250
E220  E   0.75000  0.18750  0.06250
E221  E   0.75000  0.18750  0.18750
E222  E   0.75000  0.18750  0.93750
E223  E   0.75000  0.31250  0.06250
E224  E   0.75000  0.31250  0.81250
E225  E   0.75000  0.31250  0.93750
E226  E   0.75000  0.43750  0.68750
E227  E   0.75000  0.43750  0.81250
E228  E   0.75000  0.43750  0.93750
E229  E   0.75000  0.56250  0.56250
E230  E   0.75000  0.56250  0.68750
E231  E   0.75000  0.56250  0.81250
E232  E   0.75000  0.68750  0.43750
E233  E   0.75000  0.68750  0.56250
E234  E   0.75000  0.68750  0.68750
E235  E   0.75000  0.81250  0.31250
E236  E   0.75000  0.81250  0.43750
E237  E   0.75000  0.81250  0.56250
E238  E   0.75000  0.93750  0.18750
E239  E   0.75000  0.93750  0.31250
E240  E   0.75000  0.93750  0.43750
E241  E   0.81250  0.00000  0.18750
E242  E   0.81250  0.00000  0.31250
E243  E   0.81250  0.00000  0.43750
E244  E   0.81250  0.06250  0.25000
E245  E   0.81250  0.18750  0.00000
E246  E   0.81250  0.25000  0.06250
E247  E   0.81250  0.25000  0.81250
E248  E   0.81250  0.25000  0.93750
E249  E   0.81250  0.31250  0.00000
E250  E   0.81250  0.31250  0.75000
E251  E   0.81250  0.43750  0.00000
E252  E   0.81250  0.43750  0.75000
E253  E   0.81250  0.50000  0.68750
E254  E   0.81250  0.50000  0.81250
E255  E   0.81250  0.50000  0.93750
E256  E   0.81250  0.56250  0.75000
E257  E   0.81250  0.68750  0.50000
E258  E   0.81250  0.75000  0.31250
E259  E   0.81250  0.75000  0.43750
E260  E   0.81250  0.75000  0.56250
E261  E   0.81250  0.81250  0.25000
E262  E   0.81250  0.81250  0.50000
E263  E   0.81250  0.93750  0.25000
E264  E   0.81250  0.93750  0.50000
E265  E   0.93750  0.00000  0.31250
E266  E   0.93750  0.00000  0.43750
E267  E   0.93750  0.00000  0.56250
E268  E   0.93750  0.06250  0.50000
E269  E   0.93750  0.18750  0.75000
E270  E   0.93750  0.25000  0.68750
E271  E   0.93750  0.25000  0.81250
E272  E   0.93750  0.25000  0.93750
E273  E   0.93750  0.31250  0.00000
E274  E   0.93750  0.31250  0.75000
E275  E   0.93750  0.43750  0.00000
E276  E   0.93750  0.43750  0.75000
E277  E   0.93750  0.50000  0.06250
E278  E   0.93750  0.50000  0.81250
E279  E   0.93750  0.50000  0.93750
E280  E   0.93750  0.56250  0.00000
E281  E   0.93750  0.68750  0.25000
E282  E   0.93750  0.75000  0.18750
E283  E   0.93750  0.75000  0.31250
E284  E   0.93750  0.75000  0.43750
E285  E   0.93750  0.81250  0.25000
E286  E   0.93750  0.81250  0.50000
E287  E   0.93750  0.93750  0.25000
E288  E   0.93750  0.93750  0.50000
loop_
