data_esg_C12/c1  hall_number: 107, V_con: 6, EC_con: 3
_audit_creation_date              2025-03-05
_audit_creation_method            'MOFbuilder_1.0'
_symmetry_space_group_name_H-M    'P1'
_symmetry_Int_Tables_number       1
_symmetry_cell_setting            triclinic
loop_
_symmetry_equiv_pos_as_xyz
  x,y,z
_cell_length_a                    29.7725
_cell_length_b                    13.3512
_cell_length_c                    26.6751
_cell_angle_alpha                 90.0
_cell_angle_beta                  116.4394
_cell_angle_gamma                 90.0
loop_
_atom_site_label
_atom_site_type_symbol
_atom_site_fract_x
_atom_site_fract_y
_atom_site_fract_z
V1    V   0.00000  0.00000  0.00000
V2    V   0.00000  0.50000  0.00000
V3    V   0.50000  0.00000  0.50000
V4    V   0.50000  0.50000  0.50000
EC1    EC   0.12626  0.00012  0.68716
EC2    EC   0.12626  0.49988  0.31284
EC3    EC   0.37374  0.00012  0.18716
EC4    EC   0.37374  0.49988  0.81284
EC5    EC   0.62626  0.50012  0.18716
EC6    EC   0.62626  0.99988  0.81284
EC7    EC   0.87374  0.50012  0.68716
EC8    EC   0.87374  0.99988  0.31284
E1    E   0.06313  0.74994  0.84358
E2    E   0.06313  0.74994  0.90642
E3    E   0.06313  0.75006  0.09358
E4    E   0.06313  0.75006  0.15642
E5    E   0.18687  0.00006  0.09358
E6    E   0.18687  0.49994  0.90642
E7    E   0.31313  0.00006  0.59358
E8    E   0.31313  0.49994  0.40642
E9    E   0.43687  0.74994  0.34358
E10   E   0.43687  0.74994  0.40642
E11   E   0.43687  0.75006  0.59358
E12   E   0.43687  0.75006  0.65642
E13   E   0.56313  0.24994  0.34358
E14   E   0.56313  0.24994  0.40642
E15   E   0.56313  0.25006  0.59358
E16   E   0.56313  0.25006  0.65642
E17   E   0.68687  0.50006  0.59358
E18   E   0.68687  0.99994  0.40642
E19   E   0.81313  0.50006  0.09358
E20   E   0.81313  0.99994  0.90642
E21   E   0.93687  0.24994  0.84358
E22   E   0.93687  0.24994  0.90642
E23   E   0.93687  0.25006  0.09358
E24   E   0.93687  0.25006  0.15642
loop_
