data_eto_I4132  hall_number: 510, V_con: 3, EC_con: 3
_audit_creation_date              2025-03-05
_audit_creation_method            'MOFbuilder_1.0'
_symmetry_space_group_name_H-M    'P1'
_symmetry_Int_Tables_number       1
_symmetry_cell_setting            triclinic
loop_
_symmetry_equiv_pos_as_xyz
  x,y,z
_cell_length_a                    55.5096
_cell_length_b                    55.5096
_cell_length_c                    55.5096
_cell_angle_alpha                 90.0
_cell_angle_beta                  90.0
_cell_angle_gamma                 90.0
loop_
_atom_site_label
_atom_site_type_symbol
_atom_site_fract_x
_atom_site_fract_y
_atom_site_fract_z
V1    V   0.03497  0.07556  0.32151
V2    V   0.03497  0.92444  0.17849
V3    V   0.07151  0.32556  0.21503
V4    V   0.07151  0.67444  0.28497
V5    V   0.07556  0.32151  0.03497
V6    V   0.07556  0.67849  0.46503
V7    V   0.17444  0.21503  0.92849
V8    V   0.17444  0.78497  0.57151
V9    V   0.17849  0.03497  0.92444
V10   V   0.17849  0.96503  0.57556
V11   V   0.21503  0.07151  0.32556
V12   V   0.21503  0.92849  0.17444
V13   V   0.28497  0.07151  0.67444
V14   V   0.28497  0.92849  0.82556
V15   V   0.32151  0.03497  0.07556
V16   V   0.32151  0.96503  0.42444
V17   V   0.32556  0.21503  0.07151
V18   V   0.32556  0.78497  0.42849
V19   V   0.42444  0.32151  0.96503
V20   V   0.42444  0.67849  0.53497
V21   V   0.42849  0.32556  0.78497
V22   V   0.42849  0.67444  0.71503
V23   V   0.46503  0.07556  0.67849
V24   V   0.46503  0.92444  0.82151
V25   V   0.53497  0.42444  0.67849
V26   V   0.53497  0.57556  0.82151
V27   V   0.57151  0.17444  0.78497
V28   V   0.57151  0.82556  0.71503
V29   V   0.57556  0.17849  0.96503
V30   V   0.57556  0.82151  0.53497
V31   V   0.67444  0.28497  0.07151
V32   V   0.67444  0.71503  0.42849
V33   V   0.67849  0.46503  0.07556
V34   V   0.67849  0.53497  0.42444
V35   V   0.71503  0.42849  0.67444
V36   V   0.71503  0.57151  0.82556
V37   V   0.78497  0.42849  0.32556
V38   V   0.78497  0.57151  0.17444
V39   V   0.82151  0.46503  0.92444
V40   V   0.82151  0.53497  0.57556
V41   V   0.82556  0.28497  0.92849
V42   V   0.82556  0.71503  0.57151
V43   V   0.92444  0.17849  0.03497
V44   V   0.92444  0.82151  0.46503
V45   V   0.92849  0.17444  0.21503
V46   V   0.92849  0.82556  0.28497
V47   V   0.96503  0.42444  0.32151
V48   V   0.96503  0.57556  0.17849
EC1    EC   0.04669  0.04669  0.04669
EC2    EC   0.04669  0.95331  0.45331
EC3    EC   0.20331  0.20331  0.20331
EC4    EC   0.20331  0.79669  0.29669
EC5    EC   0.29669  0.20331  0.79669
EC6    EC   0.29669  0.79669  0.70331
EC7    EC   0.45331  0.04669  0.95331
EC8    EC   0.45331  0.95331  0.54669
EC9    EC   0.54669  0.45331  0.95331
EC10   EC   0.54669  0.54669  0.54669
EC11   EC   0.70331  0.29669  0.79669
EC12   EC   0.70331  0.70331  0.70331
EC13   EC   0.79669  0.29669  0.20331
EC14   EC   0.79669  0.70331  0.29669
EC15   EC   0.95331  0.45331  0.04669
EC16   EC   0.95331  0.54669  0.45331
E1    E   0.01443  0.38741  0.04083
E2    E   0.01443  0.61259  0.45917
E3    E   0.01827  0.37500  0.26827
E4    E   0.01827  0.62500  0.23173
E5    E   0.01827  0.37500  0.26827
E6    E   0.01827  0.62500  0.23173
E7    E   0.04083  0.01443  0.38741
E8    E   0.04083  0.98557  0.11259
E9    E   0.07353  0.32353  0.12500
E10   E   0.07353  0.67647  0.37500
E11   E   0.07353  0.32353  0.12500
E12   E   0.07353  0.67647  0.37500
E13   E   0.11259  0.04083  0.98557
E14   E   0.11259  0.95917  0.51443
E15   E   0.12500  0.07353  0.32353
E16   E   0.12500  0.07353  0.32353
E17   E   0.12500  0.26827  0.98173
E18   E   0.12500  0.73173  0.51827
E19   E   0.12500  0.92647  0.17647
E20   E   0.13741  0.26443  0.20917
E21   E   0.13741  0.73557  0.29083
E22   E   0.17647  0.12500  0.92647
E23   E   0.17647  0.87500  0.57353
E24   E   0.20917  0.13741  0.26443
E25   E   0.20917  0.86259  0.23557
E26   E   0.23173  0.01827  0.62500
E27   E   0.23173  0.01827  0.62500
E28   E   0.23173  0.98173  0.87500
E29   E   0.23557  0.20917  0.86259
E30   E   0.23557  0.79083  0.63741
E31   E   0.26443  0.20917  0.13741
E32   E   0.26443  0.79083  0.36259
E33   E   0.26827  0.01827  0.37500
E34   E   0.26827  0.01827  0.37500
E35   E   0.26827  0.98173  0.12500
E36   E   0.29083  0.13741  0.73557
E37   E   0.29083  0.86259  0.76443
E38   E   0.32353  0.12500  0.07353
E39   E   0.32353  0.12500  0.07353
E40   E   0.32353  0.87500  0.42647
E41   E   0.36259  0.26443  0.79083
E42   E   0.36259  0.73557  0.70917
E43   E   0.37500  0.07353  0.67647
E44   E   0.37500  0.07353  0.67647
E45   E   0.37500  0.26827  0.01827
E46   E   0.37500  0.26827  0.01827
E47   E   0.37500  0.73173  0.48173
E48   E   0.37500  0.92647  0.82353
E49   E   0.38741  0.04083  0.01443
E50   E   0.38741  0.95917  0.48557
E51   E   0.42647  0.32353  0.87500
E52   E   0.42647  0.67647  0.62500
E53   E   0.45917  0.01443  0.61259
E54   E   0.45917  0.98557  0.88741
E55   E   0.48173  0.37500  0.73173
E56   E   0.48173  0.62500  0.76827
E57   E   0.48557  0.38741  0.95917
E58   E   0.48557  0.61259  0.54083
E59   E   0.51443  0.11259  0.95917
E60   E   0.51443  0.88741  0.54083
E61   E   0.51827  0.12500  0.73173
E62   E   0.51827  0.87500  0.76827
E63   E   0.54083  0.48557  0.61259
E64   E   0.54083  0.51443  0.88741
E65   E   0.57353  0.17647  0.87500
E66   E   0.57353  0.82353  0.62500
E67   E   0.61259  0.45917  0.01443
E68   E   0.61259  0.54083  0.48557
E69   E   0.62500  0.23173  0.01827
E70   E   0.62500  0.23173  0.01827
E71   E   0.62500  0.42647  0.67647
E72   E   0.62500  0.57353  0.82353
E73   E   0.62500  0.76827  0.48173
E74   E   0.63741  0.23557  0.79083
E75   E   0.63741  0.76443  0.70917
E76   E   0.67647  0.37500  0.07353
E77   E   0.67647  0.37500  0.07353
E78   E   0.67647  0.62500  0.42647
E79   E   0.70917  0.36259  0.73557
E80   E   0.70917  0.63741  0.76443
E81   E   0.73173  0.48173  0.37500
E82   E   0.73173  0.51827  0.12500
E83   E   0.73557  0.29083  0.13741
E84   E   0.73557  0.70917  0.36259
E85   E   0.76443  0.29083  0.86259
E86   E   0.76443  0.70917  0.63741
E87   E   0.76827  0.48173  0.62500
E88   E   0.76827  0.51827  0.87500
E89   E   0.79083  0.36259  0.26443
E90   E   0.79083  0.63741  0.23557
E91   E   0.82353  0.37500  0.92647
E92   E   0.82353  0.62500  0.57353
E93   E   0.86259  0.23557  0.20917
E94   E   0.86259  0.76443  0.29083
E95   E   0.87500  0.23173  0.98173
E96   E   0.87500  0.42647  0.32353
E97   E   0.87500  0.57353  0.17647
E98   E   0.87500  0.76827  0.51827
E99   E   0.88741  0.45917  0.98557
E100  E   0.88741  0.54083  0.51443
E101  E   0.92647  0.17647  0.12500
E102  E   0.92647  0.82353  0.37500
E103  E   0.95917  0.48557  0.38741
E104  E   0.95917  0.51443  0.11259
E105  E   0.98173  0.12500  0.26827
E106  E   0.98173  0.87500  0.23173
E107  E   0.98557  0.11259  0.04083
E108  E   0.98557  0.88741  0.45917
loop_
