data_fca_Im-3  hall_number: 500, V_con: 5
_audit_creation_date              2025-03-05
_audit_creation_method            'MOFbuilder_1.0'
_symmetry_space_group_name_H-M    'P1'
_symmetry_Int_Tables_number       1
_symmetry_cell_setting            triclinic
loop_
_symmetry_equiv_pos_as_xyz
  x,y,z
_cell_length_a                    34.4944
_cell_length_b                    34.4944
_cell_length_c                    34.4944
_cell_angle_alpha                 90.0
_cell_angle_beta                  90.0
_cell_angle_gamma                 90.0
loop_
_atom_site_label
_atom_site_type_symbol
_atom_site_fract_x
_atom_site_fract_y
_atom_site_fract_z
V1    V   0.00000  0.35505  0.32144
V2    V   0.00000  0.35505  0.67856
V3    V   0.00000  0.64495  0.32144
V4    V   0.00000  0.64495  0.67856
V5    V   0.14495  0.17856  0.50000
V6    V   0.14495  0.82144  0.50000
V7    V   0.17856  0.50000  0.14495
V8    V   0.17856  0.50000  0.85505
V9    V   0.32144  0.00000  0.35505
V10   V   0.32144  0.00000  0.64495
V11   V   0.35505  0.32144  0.00000
V12   V   0.35505  0.67856  0.00000
V13   V   0.50000  0.14495  0.17856
V14   V   0.50000  0.14495  0.82144
V15   V   0.50000  0.85505  0.17856
V16   V   0.50000  0.85505  0.82144
V17   V   0.64495  0.32144  0.00000
V18   V   0.64495  0.67856  0.00000
V19   V   0.67856  0.00000  0.35505
V20   V   0.67856  0.00000  0.64495
V21   V   0.82144  0.50000  0.14495
V22   V   0.82144  0.50000  0.85505
V23   V   0.85505  0.17856  0.50000
V24   V   0.85505  0.82144  0.50000
E1    E   0.00000  0.17856  0.50000
E2    E   0.00000  0.50000  0.32144
E3    E   0.00000  0.50000  0.67856
E4    E   0.00000  0.82144  0.50000
E5    E   0.07248  0.26681  0.41072
E6    E   0.07248  0.26681  0.58928
E7    E   0.07248  0.73319  0.41072
E8    E   0.07248  0.73319  0.58928
E9    E   0.08928  0.42752  0.23319
E10   E   0.08928  0.42752  0.76681
E11   E   0.08928  0.57248  0.23319
E12   E   0.08928  0.57248  0.76681
E13   E   0.17856  0.50000  0.00000
E14   E   0.23319  0.08928  0.42752
E15   E   0.23319  0.08928  0.57248
E16   E   0.23319  0.91072  0.42752
E17   E   0.23319  0.91072  0.57248
E18   E   0.26681  0.41072  0.07248
E19   E   0.26681  0.41072  0.92752
E20   E   0.26681  0.58928  0.07248
E21   E   0.26681  0.58928  0.92752
E22   E   0.32144  0.00000  0.50000
E23   E   0.41072  0.07248  0.26681
E24   E   0.41072  0.07248  0.73319
E25   E   0.41072  0.92752  0.26681
E26   E   0.41072  0.92752  0.73319
E27   E   0.42752  0.23319  0.08928
E28   E   0.42752  0.23319  0.91072
E29   E   0.42752  0.76681  0.08928
E30   E   0.42752  0.76681  0.91072
E31   E   0.50000  0.00000  0.17856
E32   E   0.50000  0.00000  0.82144
E33   E   0.50000  0.32144  0.00000
E34   E   0.50000  0.67856  0.00000
E35   E   0.57248  0.23319  0.08928
E36   E   0.57248  0.23319  0.91072
E37   E   0.57248  0.76681  0.08928
E38   E   0.57248  0.76681  0.91072
E39   E   0.58928  0.07248  0.26681
E40   E   0.58928  0.07248  0.73319
E41   E   0.58928  0.92752  0.26681
E42   E   0.58928  0.92752  0.73319
E43   E   0.67856  0.00000  0.50000
E44   E   0.73319  0.41072  0.07248
E45   E   0.73319  0.41072  0.92752
E46   E   0.73319  0.58928  0.07248
E47   E   0.73319  0.58928  0.92752
E48   E   0.76681  0.08928  0.42752
E49   E   0.76681  0.08928  0.57248
E50   E   0.76681  0.91072  0.42752
E51   E   0.76681  0.91072  0.57248
E52   E   0.82144  0.50000  0.00000
E53   E   0.91072  0.42752  0.23319
E54   E   0.91072  0.42752  0.76681
E55   E   0.91072  0.57248  0.23319
E56   E   0.91072  0.57248  0.76681
E57   E   0.92752  0.26681  0.41072
E58   E   0.92752  0.26681  0.58928
E59   E   0.92752  0.73319  0.41072
E60   E   0.92752  0.73319  0.58928
loop_
