data_fcb_I432  hall_number: 507, V_con: 5
_audit_creation_date              2025-03-05
_audit_creation_method            'MOFbuilder_1.0'
_symmetry_space_group_name_H-M    'P1'
_symmetry_Int_Tables_number       1
_symmetry_cell_setting            triclinic
loop_
_symmetry_equiv_pos_as_xyz
  x,y,z
_cell_length_a                    31.6014
_cell_length_b                    31.6014
_cell_length_c                    31.6014
_cell_angle_alpha                 90.0
_cell_angle_beta                  90.0
_cell_angle_gamma                 90.0
loop_
_atom_site_label
_atom_site_type_symbol
_atom_site_fract_x
_atom_site_fract_y
_atom_site_fract_z
V1    V   0.11803  0.25000  0.61803
V2    V   0.11803  0.38197  0.25000
V3    V   0.11803  0.61803  0.75000
V4    V   0.11803  0.75000  0.38197
V5    V   0.11803  0.25000  0.61803
V6    V   0.11803  0.38197  0.25000
V7    V   0.11803  0.61803  0.75000
V8    V   0.11803  0.75000  0.38197
V9    V   0.25000  0.11803  0.38197
V10   V   0.25000  0.11803  0.38197
V11   V   0.25000  0.38197  0.88197
V12   V   0.25000  0.38197  0.88197
V13   V   0.25000  0.61803  0.11803
V14   V   0.25000  0.61803  0.11803
V15   V   0.25000  0.88197  0.61803
V16   V   0.25000  0.88197  0.61803
V17   V   0.38197  0.11803  0.75000
V18   V   0.38197  0.25000  0.11803
V19   V   0.38197  0.75000  0.88197
V20   V   0.38197  0.88197  0.25000
V21   V   0.38197  0.11803  0.75000
V22   V   0.38197  0.25000  0.11803
V23   V   0.38197  0.75000  0.88197
V24   V   0.38197  0.88197  0.25000
V25   V   0.61803  0.11803  0.25000
V26   V   0.61803  0.25000  0.88197
V27   V   0.61803  0.75000  0.11803
V28   V   0.61803  0.88197  0.75000
V29   V   0.61803  0.11803  0.25000
V30   V   0.61803  0.25000  0.88197
V31   V   0.61803  0.75000  0.11803
V32   V   0.61803  0.88197  0.75000
V33   V   0.75000  0.11803  0.61803
V34   V   0.75000  0.11803  0.61803
V35   V   0.75000  0.38197  0.11803
V36   V   0.75000  0.38197  0.11803
V37   V   0.75000  0.61803  0.88197
V38   V   0.75000  0.61803  0.88197
V39   V   0.75000  0.88197  0.38197
V40   V   0.75000  0.88197  0.38197
V41   V   0.88197  0.25000  0.38197
V42   V   0.88197  0.38197  0.75000
V43   V   0.88197  0.61803  0.25000
V44   V   0.88197  0.75000  0.61803
V45   V   0.88197  0.25000  0.38197
V46   V   0.88197  0.38197  0.75000
V47   V   0.88197  0.61803  0.25000
V48   V   0.88197  0.75000  0.61803
E1    E   0.00000  0.25000  0.50000
E2    E   0.00000  0.31598  0.31598
E3    E   0.00000  0.31598  0.68402
E4    E   0.00000  0.50000  0.25000
E5    E   0.00000  0.50000  0.75000
E6    E   0.00000  0.68402  0.31598
E7    E   0.00000  0.68402  0.68402
E8    E   0.00000  0.75000  0.50000
E9    E   0.18402  0.18402  0.50000
E10   E   0.18402  0.25000  0.31598
E11   E   0.18402  0.31598  0.75000
E12   E   0.18402  0.50000  0.18402
E13   E   0.18402  0.50000  0.81598
E14   E   0.18402  0.68402  0.25000
E15   E   0.18402  0.75000  0.68402
E16   E   0.18402  0.81598  0.50000
E17   E   0.18402  0.25000  0.31598
E18   E   0.18402  0.31598  0.75000
E19   E   0.18402  0.68402  0.25000
E20   E   0.18402  0.75000  0.68402
E21   E   0.25000  0.00000  0.50000
E22   E   0.25000  0.18402  0.68402
E23   E   0.25000  0.18402  0.68402
E24   E   0.25000  0.31598  0.18402
E25   E   0.25000  0.31598  0.18402
E26   E   0.25000  0.50000  0.00000
E27   E   0.25000  0.68402  0.81598
E28   E   0.25000  0.68402  0.81598
E29   E   0.25000  0.81598  0.31598
E30   E   0.25000  0.81598  0.31598
E31   E   0.31598  0.18402  0.25000
E32   E   0.31598  0.25000  0.81598
E33   E   0.31598  0.75000  0.18402
E34   E   0.31598  0.81598  0.75000
E35   E   0.31598  0.00000  0.31598
E36   E   0.31598  0.00000  0.68402
E37   E   0.31598  0.18402  0.25000
E38   E   0.31598  0.25000  0.81598
E39   E   0.31598  0.31598  0.00000
E40   E   0.31598  0.68402  0.00000
E41   E   0.31598  0.75000  0.18402
E42   E   0.31598  0.81598  0.75000
E43   E   0.50000  0.00000  0.25000
E44   E   0.50000  0.00000  0.75000
E45   E   0.50000  0.18402  0.18402
E46   E   0.50000  0.18402  0.81598
E47   E   0.50000  0.25000  0.00000
E48   E   0.50000  0.75000  0.00000
E49   E   0.50000  0.81598  0.18402
E50   E   0.50000  0.81598  0.81598
E51   E   0.68402  0.00000  0.31598
E52   E   0.68402  0.00000  0.68402
E53   E   0.68402  0.18402  0.75000
E54   E   0.68402  0.25000  0.18402
E55   E   0.68402  0.31598  0.00000
E56   E   0.68402  0.68402  0.00000
E57   E   0.68402  0.75000  0.81598
E58   E   0.68402  0.81598  0.25000
E59   E   0.68402  0.18402  0.75000
E60   E   0.68402  0.25000  0.18402
E61   E   0.68402  0.75000  0.81598
E62   E   0.68402  0.81598  0.25000
E63   E   0.75000  0.00000  0.50000
E64   E   0.75000  0.18402  0.31598
E65   E   0.75000  0.18402  0.31598
E66   E   0.75000  0.31598  0.81598
E67   E   0.75000  0.31598  0.81598
E68   E   0.75000  0.50000  0.00000
E69   E   0.75000  0.68402  0.18402
E70   E   0.75000  0.68402  0.18402
E71   E   0.75000  0.81598  0.68402
E72   E   0.75000  0.81598  0.68402
E73   E   0.81598  0.25000  0.68402
E74   E   0.81598  0.31598  0.25000
E75   E   0.81598  0.68402  0.75000
E76   E   0.81598  0.75000  0.31598
E77   E   0.81598  0.18402  0.50000
E78   E   0.81598  0.25000  0.68402
E79   E   0.81598  0.31598  0.25000
E80   E   0.81598  0.50000  0.18402
E81   E   0.81598  0.50000  0.81598
E82   E   0.81598  0.68402  0.75000
E83   E   0.81598  0.75000  0.31598
E84   E   0.81598  0.81598  0.50000
loop_
