data_fce_P432  hall_number: 503, V_con: 5
_audit_creation_date              2025-03-05
_audit_creation_method            'MOFbuilder_1.0'
_symmetry_space_group_name_H-M    'P1'
_symmetry_Int_Tables_number       1
_symmetry_cell_setting            triclinic
loop_
_symmetry_equiv_pos_as_xyz
  x,y,z
_cell_length_a                    33.3668
_cell_length_b                    33.3668
_cell_length_c                    33.3668
_cell_angle_alpha                 90.0
_cell_angle_beta                  90.0
_cell_angle_gamma                 90.0
loop_
_atom_site_label
_atom_site_type_symbol
_atom_site_fract_x
_atom_site_fract_y
_atom_site_fract_z
V1    V   0.12601  0.30421  0.58110
V2    V   0.12601  0.41890  0.30421
V3    V   0.12601  0.58110  0.69579
V4    V   0.12601  0.69579  0.41890
V5    V   0.30421  0.12601  0.41890
V6    V   0.30421  0.41890  0.87399
V7    V   0.30421  0.58110  0.12601
V8    V   0.30421  0.87399  0.58110
V9    V   0.41890  0.12601  0.69579
V10   V   0.41890  0.30421  0.12601
V11   V   0.41890  0.69579  0.87399
V12   V   0.41890  0.87399  0.30421
V13   V   0.58110  0.12601  0.30421
V14   V   0.58110  0.30421  0.87399
V15   V   0.58110  0.69579  0.12601
V16   V   0.58110  0.87399  0.69579
V17   V   0.69579  0.12601  0.58110
V18   V   0.69579  0.41890  0.12601
V19   V   0.69579  0.58110  0.87399
V20   V   0.69579  0.87399  0.41890
V21   V   0.87399  0.30421  0.41890
V22   V   0.87399  0.41890  0.69579
V23   V   0.87399  0.58110  0.30421
V24   V   0.87399  0.69579  0.58110
E1    E   0.00000  0.30421  0.50000
E2    E   0.00000  0.36156  0.36156
E3    E   0.00000  0.36156  0.63844
E4    E   0.00000  0.50000  0.30421
E5    E   0.00000  0.50000  0.69579
E6    E   0.00000  0.63844  0.36156
E7    E   0.00000  0.63844  0.63844
E8    E   0.00000  0.69579  0.50000
E9    E   0.12601  0.36156  0.44265
E10   E   0.12601  0.44265  0.63844
E11   E   0.12601  0.55735  0.36156
E12   E   0.12601  0.63844  0.55735
E13   E   0.21511  0.21511  0.50000
E14   E   0.21511  0.50000  0.21511
E15   E   0.21511  0.50000  0.78489
E16   E   0.21511  0.78489  0.50000
E17   E   0.30421  0.00000  0.50000
E18   E   0.30421  0.50000  0.00000
E19   E   0.36156  0.00000  0.36156
E20   E   0.36156  0.00000  0.63844
E21   E   0.36156  0.12601  0.55735
E22   E   0.36156  0.36156  0.00000
E23   E   0.36156  0.44265  0.12601
E24   E   0.36156  0.55735  0.87399
E25   E   0.36156  0.63844  0.00000
E26   E   0.36156  0.87399  0.44265
E27   E   0.44265  0.12601  0.36156
E28   E   0.44265  0.36156  0.87399
E29   E   0.44265  0.63844  0.12601
E30   E   0.44265  0.87399  0.63844
E31   E   0.50000  0.00000  0.30421
E32   E   0.50000  0.00000  0.69579
E33   E   0.50000  0.21511  0.21511
E34   E   0.50000  0.21511  0.78489
E35   E   0.50000  0.30421  0.00000
E36   E   0.50000  0.69579  0.00000
E37   E   0.50000  0.78489  0.21511
E38   E   0.50000  0.78489  0.78489
E39   E   0.55735  0.12601  0.63844
E40   E   0.55735  0.36156  0.12601
E41   E   0.55735  0.63844  0.87399
E42   E   0.55735  0.87399  0.36156
E43   E   0.63844  0.00000  0.36156
E44   E   0.63844  0.00000  0.63844
E45   E   0.63844  0.12601  0.44265
E46   E   0.63844  0.36156  0.00000
E47   E   0.63844  0.44265  0.87399
E48   E   0.63844  0.55735  0.12601
E49   E   0.63844  0.63844  0.00000
E50   E   0.63844  0.87399  0.55735
E51   E   0.69579  0.00000  0.50000
E52   E   0.69579  0.50000  0.00000
E53   E   0.78489  0.21511  0.50000
E54   E   0.78489  0.50000  0.21511
E55   E   0.78489  0.50000  0.78489
E56   E   0.78489  0.78489  0.50000
E57   E   0.87399  0.36156  0.55735
E58   E   0.87399  0.44265  0.36156
E59   E   0.87399  0.55735  0.63844
E60   E   0.87399  0.63844  0.44265
loop_
