data_fci_P4332  hall_number: 508, V_con: 5
_audit_creation_date              2025-03-05
_audit_creation_method            'MOFbuilder_1.0'
_symmetry_space_group_name_H-M    'P1'
_symmetry_Int_Tables_number       1
_symmetry_cell_setting            triclinic
loop_
_symmetry_equiv_pos_as_xyz
  x,y,z
_cell_length_a                    39.3208
_cell_length_b                    39.3208
_cell_length_c                    39.3208
_cell_angle_alpha                 90.0
_cell_angle_beta                  90.0
_cell_angle_gamma                 90.0
loop_
_atom_site_label
_atom_site_type_symbol
_atom_site_fract_x
_atom_site_fract_y
_atom_site_fract_z
V1    V   0.01918  0.65486  0.77684
V2    V   0.02684  0.40486  0.73082
V3    V   0.09514  0.26918  0.52684
V4    V   0.15486  0.72316  0.98082
V5    V   0.22316  0.51918  0.84514
V6    V   0.23082  0.47316  0.59514
V7    V   0.26918  0.52684  0.09514
V8    V   0.27684  0.48082  0.34514
V9    V   0.34514  0.27684  0.48082
V10   V   0.40486  0.73082  0.02684
V11   V   0.47316  0.59514  0.23082
V12   V   0.48082  0.34514  0.27684
V13   V   0.51918  0.84514  0.22316
V14   V   0.52684  0.09514  0.26918
V15   V   0.59514  0.23082  0.47316
V16   V   0.65486  0.77684  0.01918
V17   V   0.72316  0.98082  0.15486
V18   V   0.73082  0.02684  0.40486
V19   V   0.76918  0.97316  0.90486
V20   V   0.77684  0.01918  0.65486
V21   V   0.84514  0.22316  0.51918
V22   V   0.90486  0.76918  0.97316
V23   V   0.97316  0.90486  0.76918
V24   V   0.98082  0.15486  0.72316
E1    E   0.00383  0.27986  0.72699
E2    E   0.02301  0.52986  0.75383
E3    E   0.02986  0.74617  0.97699
E4    E   0.03798  0.21202  0.62500
E5    E   0.03798  0.21202  0.62500
E6    E   0.06099  0.33702  0.62883
E7    E   0.08702  0.68901  0.87883
E8    E   0.12117  0.58702  0.81099
E9    E   0.12500  0.46202  0.78798
E10   E   0.12883  0.43901  0.66298
E11   E   0.16298  0.37117  0.56099
E12   E   0.18901  0.62117  0.91298
E13   E   0.21202  0.62500  0.03798
E14   E   0.21202  0.62500  0.03798
E15   E   0.22014  0.27301  0.50383
E16   E   0.22699  0.49617  0.72014
E17   E   0.24617  0.52301  0.97014
E18   E   0.25383  0.47699  0.47014
E19   E   0.27301  0.50383  0.22014
E20   E   0.27986  0.72699  0.00383
E21   E   0.28798  0.37500  0.53798
E22   E   0.31099  0.37883  0.41298
E23   E   0.33702  0.62883  0.06099
E24   E   0.37117  0.56099  0.16298
E25   E   0.37500  0.53798  0.28798
E26   E   0.37883  0.41298  0.31099
E27   E   0.41298  0.31099  0.37883
E28   E   0.43901  0.66298  0.12883
E29   E   0.46202  0.78798  0.12500
E30   E   0.47014  0.25383  0.47699
E31   E   0.47699  0.47014  0.25383
E32   E   0.49617  0.72014  0.22699
E33   E   0.50383  0.22014  0.27301
E34   E   0.52301  0.97014  0.24617
E35   E   0.52986  0.75383  0.02301
E36   E   0.53798  0.28798  0.37500
E37   E   0.56099  0.16298  0.37117
E38   E   0.58702  0.81099  0.12117
E39   E   0.62117  0.91298  0.18901
E40   E   0.62500  0.03798  0.21202
E41   E   0.62500  0.03798  0.21202
E42   E   0.62883  0.06099  0.33702
E43   E   0.66298  0.12883  0.43901
E44   E   0.68901  0.87883  0.08702
E45   E   0.71202  0.87500  0.96202
E46   E   0.72014  0.22699  0.49617
E47   E   0.72699  0.00383  0.27986
E48   E   0.74617  0.97699  0.02986
E49   E   0.75383  0.02301  0.52986
E50   E   0.77301  0.99617  0.77986
E51   E   0.77986  0.77301  0.99617
E52   E   0.78798  0.12500  0.46202
E53   E   0.81099  0.12117  0.58702
E54   E   0.83702  0.87117  0.93901
E55   E   0.87117  0.93901  0.83702
E56   E   0.87500  0.96202  0.71202
E57   E   0.87883  0.08702  0.68901
E58   E   0.91298  0.18901  0.62117
E59   E   0.93901  0.83702  0.87117
E60   E   0.96202  0.71202  0.87500
E61   E   0.97014  0.24617  0.52301
E62   E   0.97699  0.02986  0.74617
E63   E   0.99617  0.77986  0.77301
loop_
