data_fcn_I4132  hall_number: 510, V_con: 5
_audit_creation_date              2025-03-05
_audit_creation_method            'MOFbuilder_1.0'
_symmetry_space_group_name_H-M    'P1'
_symmetry_Int_Tables_number       1
_symmetry_cell_setting            triclinic
loop_
_symmetry_equiv_pos_as_xyz
  x,y,z
_cell_length_a                    43.7937
_cell_length_b                    43.7937
_cell_length_c                    43.7937
_cell_angle_alpha                 90.0
_cell_angle_beta                  90.0
_cell_angle_gamma                 90.0
loop_
_atom_site_label
_atom_site_type_symbol
_atom_site_fract_x
_atom_site_fract_y
_atom_site_fract_z
V1    V   0.03414  0.44092  0.15230
V2    V   0.03414  0.55908  0.34770
V3    V   0.05908  0.15230  0.96586
V4    V   0.05908  0.84770  0.53414
V5    V   0.09770  0.19092  0.28414
V6    V   0.09770  0.80908  0.21586
V7    V   0.15230  0.03414  0.44092
V8    V   0.15230  0.96586  0.05908
V9    V   0.19092  0.28414  0.09770
V10   V   0.19092  0.71586  0.40230
V11   V   0.21586  0.09770  0.80908
V12   V   0.21586  0.90230  0.69092
V13   V   0.28414  0.09770  0.19092
V14   V   0.28414  0.90230  0.30908
V15   V   0.30908  0.28414  0.90230
V16   V   0.30908  0.71586  0.59770
V17   V   0.34770  0.03414  0.55908
V18   V   0.34770  0.96586  0.94092
V19   V   0.40230  0.19092  0.71586
V20   V   0.40230  0.80908  0.78414
V21   V   0.44092  0.15230  0.03414
V22   V   0.44092  0.84770  0.46586
V23   V   0.46586  0.44092  0.84770
V24   V   0.46586  0.55908  0.65230
V25   V   0.53414  0.05908  0.84770
V26   V   0.53414  0.94092  0.65230
V27   V   0.55908  0.34770  0.03414
V28   V   0.55908  0.65230  0.46586
V29   V   0.59770  0.30908  0.71586
V30   V   0.59770  0.69092  0.78414
V31   V   0.65230  0.46586  0.55908
V32   V   0.65230  0.53414  0.94092
V33   V   0.69092  0.21586  0.90230
V34   V   0.69092  0.78414  0.59770
V35   V   0.71586  0.40230  0.19092
V36   V   0.71586  0.59770  0.30908
V37   V   0.78414  0.40230  0.80908
V38   V   0.78414  0.59770  0.69092
V39   V   0.80908  0.21586  0.09770
V40   V   0.80908  0.78414  0.40230
V41   V   0.84770  0.46586  0.44092
V42   V   0.84770  0.53414  0.05908
V43   V   0.90230  0.30908  0.28414
V44   V   0.90230  0.69092  0.21586
V45   V   0.94092  0.34770  0.96586
V46   V   0.94092  0.65230  0.53414
V47   V   0.96586  0.05908  0.15230
V48   V   0.96586  0.94092  0.34770
E1    E   0.00000  0.25000  0.28414
E2    E   0.00000  0.25000  0.96586
E3    E   0.00000  0.75000  0.21586
E4    E   0.00000  0.75000  0.53414
E5    E   0.01247  0.10569  0.05908
E6    E   0.01247  0.89431  0.44092
E7    E   0.03178  0.12500  0.21822
E8    E   0.03178  0.87500  0.28178
E9    E   0.03414  0.50000  0.25000
E10   E   0.05908  0.01247  0.10569
E11   E   0.05908  0.98753  0.39431
E12   E   0.10569  0.05908  0.01247
E13   E   0.10569  0.94092  0.48753
E14   E   0.11253  0.36253  0.12500
E15   E   0.11253  0.63747  0.37500
E16   E   0.11253  0.36253  0.12500
E17   E   0.11253  0.63747  0.37500
E18   E   0.12500  0.11253  0.36253
E19   E   0.12500  0.11253  0.36253
E20   E   0.12500  0.21822  0.03178
E21   E   0.12500  0.78178  0.46822
E22   E   0.12500  0.88747  0.13747
E23   E   0.13747  0.12500  0.88747
E24   E   0.13747  0.87500  0.61253
E25   E   0.14431  0.23753  0.19092
E26   E   0.14431  0.76247  0.30908
E27   E   0.19092  0.14431  0.23753
E28   E   0.19092  0.85569  0.26247
E29   E   0.21586  0.00000  0.75000
E30   E   0.21822  0.03178  0.12500
E31   E   0.21822  0.96822  0.37500
E32   E   0.23753  0.19092  0.14431
E33   E   0.23753  0.80908  0.35569
E34   E   0.25000  0.03414  0.50000
E35   E   0.25000  0.28414  0.00000
E36   E   0.25000  0.71586  0.50000
E37   E   0.25000  0.96586  0.00000
E38   E   0.26247  0.19092  0.85569
E39   E   0.26247  0.80908  0.64431
E40   E   0.28178  0.03178  0.87500
E41   E   0.28178  0.96822  0.62500
E42   E   0.28414  0.00000  0.25000
E43   E   0.30908  0.14431  0.76247
E44   E   0.30908  0.85569  0.73753
E45   E   0.35569  0.23753  0.80908
E46   E   0.35569  0.76247  0.69092
E47   E   0.36253  0.12500  0.11253
E48   E   0.36253  0.12500  0.11253
E49   E   0.36253  0.87500  0.38747
E50   E   0.37500  0.11253  0.63747
E51   E   0.37500  0.11253  0.63747
E52   E   0.37500  0.21822  0.96822
E53   E   0.37500  0.78178  0.53178
E54   E   0.37500  0.88747  0.86253
E55   E   0.38747  0.36253  0.87500
E56   E   0.38747  0.63747  0.62500
E57   E   0.39431  0.05908  0.98753
E58   E   0.39431  0.94092  0.51247
E59   E   0.44092  0.01247  0.89431
E60   E   0.44092  0.98753  0.60569
E61   E   0.46586  0.50000  0.75000
E62   E   0.46822  0.12500  0.78178
E63   E   0.46822  0.87500  0.71822
E64   E   0.48753  0.10569  0.94092
E65   E   0.48753  0.89431  0.55908
E66   E   0.50000  0.25000  0.03414
E67   E   0.50000  0.25000  0.71586
E68   E   0.50000  0.75000  0.46586
E69   E   0.50000  0.75000  0.78414
E70   E   0.51247  0.39431  0.94092
E71   E   0.51247  0.60569  0.55908
E72   E   0.53178  0.37500  0.78178
E73   E   0.53178  0.62500  0.71822
E74   E   0.53414  0.00000  0.75000
E75   E   0.55908  0.48753  0.89431
E76   E   0.55908  0.51247  0.60569
E77   E   0.60569  0.44092  0.98753
E78   E   0.60569  0.55908  0.51247
E79   E   0.61253  0.13747  0.87500
E80   E   0.61253  0.86253  0.62500
E81   E   0.62500  0.28178  0.96822
E82   E   0.62500  0.38747  0.63747
E83   E   0.62500  0.61253  0.86253
E84   E   0.62500  0.71822  0.53178
E85   E   0.63747  0.37500  0.11253
E86   E   0.63747  0.37500  0.11253
E87   E   0.63747  0.62500  0.38747
E88   E   0.64431  0.26247  0.80908
E89   E   0.64431  0.73753  0.69092
E90   E   0.69092  0.35569  0.76247
E91   E   0.69092  0.64431  0.73753
E92   E   0.71586  0.50000  0.25000
E93   E   0.71822  0.46822  0.87500
E94   E   0.71822  0.53178  0.62500
E95   E   0.73753  0.30908  0.85569
E96   E   0.73753  0.69092  0.64431
E97   E   0.75000  0.21586  0.00000
E98   E   0.75000  0.46586  0.50000
E99   E   0.75000  0.53414  0.00000
E100  E   0.75000  0.78414  0.50000
E101  E   0.76247  0.30908  0.14431
E102  E   0.76247  0.69092  0.35569
E103  E   0.78178  0.46822  0.12500
E104  E   0.78178  0.53178  0.37500
E105  E   0.78414  0.50000  0.75000
E106  E   0.80908  0.35569  0.23753
E107  E   0.80908  0.64431  0.26247
E108  E   0.85569  0.26247  0.19092
E109  E   0.85569  0.73753  0.30908
E110  E   0.86253  0.37500  0.88747
E111  E   0.86253  0.62500  0.61253
E112  E   0.87500  0.28178  0.03178
E113  E   0.87500  0.38747  0.36253
E114  E   0.87500  0.61253  0.13747
E115  E   0.87500  0.71822  0.46822
E116  E   0.88747  0.13747  0.12500
E117  E   0.88747  0.86253  0.37500
E118  E   0.89431  0.44092  0.01247
E119  E   0.89431  0.55908  0.48753
E120  E   0.94092  0.48753  0.10569
E121  E   0.94092  0.51247  0.39431
E122  E   0.96586  0.00000  0.25000
E123  E   0.96822  0.37500  0.21822
E124  E   0.96822  0.62500  0.28178
E125  E   0.98753  0.39431  0.05908
E126  E   0.98753  0.60569  0.44092
loop_
