data_fct_Pn-3n:2  hall_number: 519, V_con: 5
_audit_creation_date              2025-03-05
_audit_creation_method            'MOFbuilder_1.0'
_symmetry_space_group_name_H-M    'P1'
_symmetry_Int_Tables_number       1
_symmetry_cell_setting            triclinic
loop_
_symmetry_equiv_pos_as_xyz
  x,y,z
_cell_length_a                    46.6882
_cell_length_b                    46.6882
_cell_length_c                    46.6882
_cell_angle_alpha                 90.0
_cell_angle_beta                  90.0
_cell_angle_gamma                 90.0
loop_
_atom_site_label
_atom_site_type_symbol
_atom_site_fract_x
_atom_site_fract_y
_atom_site_fract_z
V1    V   0.02285  0.12495  0.67090
V2    V   0.02285  0.37505  0.82910
V3    V   0.02285  0.67090  0.37505
V4    V   0.02285  0.82910  0.12495
V5    V   0.12495  0.02285  0.82910
V6    V   0.12495  0.47715  0.67090
V7    V   0.12495  0.67090  0.02285
V8    V   0.12495  0.82910  0.47715
V9    V   0.17090  0.52285  0.87505
V10   V   0.17090  0.62495  0.52285
V11   V   0.17090  0.87505  0.97715
V12   V   0.17090  0.97715  0.62495
V13   V   0.32910  0.52285  0.62495
V14   V   0.32910  0.62495  0.97715
V15   V   0.32910  0.87505  0.52285
V16   V   0.32910  0.97715  0.87505
V17   V   0.37505  0.02285  0.67090
V18   V   0.37505  0.47715  0.82910
V19   V   0.37505  0.67090  0.47715
V20   V   0.37505  0.82910  0.02285
V21   V   0.47715  0.12495  0.82910
V22   V   0.47715  0.37505  0.67090
V23   V   0.47715  0.67090  0.12495
V24   V   0.47715  0.82910  0.37505
V25   V   0.52285  0.17090  0.62495
V26   V   0.52285  0.32910  0.87505
V27   V   0.52285  0.62495  0.32910
V28   V   0.52285  0.87505  0.17090
V29   V   0.62495  0.17090  0.97715
V30   V   0.62495  0.32910  0.52285
V31   V   0.62495  0.52285  0.17090
V32   V   0.62495  0.97715  0.32910
V33   V   0.67090  0.02285  0.12495
V34   V   0.67090  0.12495  0.47715
V35   V   0.67090  0.37505  0.02285
V36   V   0.67090  0.47715  0.37505
V37   V   0.82910  0.02285  0.37505
V38   V   0.82910  0.12495  0.02285
V39   V   0.82910  0.37505  0.47715
V40   V   0.82910  0.47715  0.12495
V41   V   0.87505  0.17090  0.52285
V42   V   0.87505  0.32910  0.97715
V43   V   0.87505  0.52285  0.32910
V44   V   0.87505  0.97715  0.17090
V45   V   0.97715  0.17090  0.87505
V46   V   0.97715  0.32910  0.62495
V47   V   0.97715  0.62495  0.17090
V48   V   0.97715  0.87505  0.32910
E1    E   0.00000  0.14793  0.77297
E2    E   0.00000  0.22703  0.64793
E3    E   0.00000  0.27297  0.85207
E4    E   0.00000  0.35207  0.72703
E5    E   0.00000  0.64793  0.27297
E6    E   0.00000  0.72703  0.14793
E7    E   0.00000  0.77297  0.35207
E8    E   0.00000  0.85207  0.22703
E9    E   0.05105  0.09688  0.85207
E10   E   0.05105  0.40312  0.64793
E11   E   0.05105  0.64793  0.09688
E12   E   0.05105  0.85207  0.40312
E13   E   0.07390  0.07390  0.75000
E14   E   0.07390  0.42610  0.75000
E15   E   0.07390  0.75000  0.07390
E16   E   0.07390  0.75000  0.42610
E17   E   0.09688  0.05105  0.64793
E18   E   0.09688  0.44895  0.85207
E19   E   0.09688  0.64793  0.44895
E20   E   0.09688  0.85207  0.05105
E21   E   0.14793  0.00000  0.72703
E22   E   0.14793  0.50000  0.77297
E23   E   0.14793  0.55105  0.59688
E24   E   0.14793  0.59688  0.94895
E25   E   0.14793  0.72703  0.50000
E26   E   0.14793  0.77297  0.00000
E27   E   0.14793  0.90312  0.55105
E28   E   0.14793  0.94895  0.90312
E29   E   0.22703  0.00000  0.85207
E30   E   0.22703  0.50000  0.64793
E31   E   0.22703  0.64793  0.00000
E32   E   0.22703  0.85207  0.50000
E33   E   0.25000  0.57390  0.57390
E34   E   0.25000  0.57390  0.92610
E35   E   0.25000  0.92610  0.57390
E36   E   0.25000  0.92610  0.92610
E37   E   0.27297  0.00000  0.64793
E38   E   0.27297  0.50000  0.85207
E39   E   0.27297  0.64793  0.50000
E40   E   0.27297  0.85207  0.00000
E41   E   0.35207  0.00000  0.77297
E42   E   0.35207  0.50000  0.72703
E43   E   0.35207  0.55105  0.90312
E44   E   0.35207  0.59688  0.55105
E45   E   0.35207  0.72703  0.00000
E46   E   0.35207  0.77297  0.50000
E47   E   0.35207  0.90312  0.94895
E48   E   0.35207  0.94895  0.59688
E49   E   0.40312  0.05105  0.85207
E50   E   0.40312  0.44895  0.64793
E51   E   0.40312  0.64793  0.05105
E52   E   0.40312  0.85207  0.44895
E53   E   0.42610  0.07390  0.75000
E54   E   0.42610  0.42610  0.75000
E55   E   0.42610  0.75000  0.07390
E56   E   0.42610  0.75000  0.42610
E57   E   0.44895  0.09688  0.64793
E58   E   0.44895  0.40312  0.85207
E59   E   0.44895  0.64793  0.40312
E60   E   0.44895  0.85207  0.09688
E61   E   0.50000  0.14793  0.72703
E62   E   0.50000  0.22703  0.85207
E63   E   0.50000  0.27297  0.64793
E64   E   0.50000  0.35207  0.77297
E65   E   0.50000  0.64793  0.22703
E66   E   0.50000  0.72703  0.35207
E67   E   0.50000  0.77297  0.14793
E68   E   0.50000  0.85207  0.27297
E69   E   0.55105  0.14793  0.90312
E70   E   0.55105  0.35207  0.59688
E71   E   0.55105  0.59688  0.14793
E72   E   0.55105  0.90312  0.35207
E73   E   0.57390  0.25000  0.57390
E74   E   0.57390  0.25000  0.92610
E75   E   0.57390  0.57390  0.25000
E76   E   0.57390  0.92610  0.25000
E77   E   0.59688  0.14793  0.55105
E78   E   0.59688  0.35207  0.94895
E79   E   0.59688  0.55105  0.35207
E80   E   0.59688  0.94895  0.14793
E81   E   0.64793  0.00000  0.22703
E82   E   0.64793  0.05105  0.40312
E83   E   0.64793  0.09688  0.05105
E84   E   0.64793  0.22703  0.50000
E85   E   0.64793  0.27297  0.00000
E86   E   0.64793  0.40312  0.44895
E87   E   0.64793  0.44895  0.09688
E88   E   0.64793  0.50000  0.27297
E89   E   0.72703  0.00000  0.35207
E90   E   0.72703  0.14793  0.00000
E91   E   0.72703  0.35207  0.50000
E92   E   0.72703  0.50000  0.14793
E93   E   0.75000  0.07390  0.07390
E94   E   0.75000  0.07390  0.42610
E95   E   0.75000  0.42610  0.07390
E96   E   0.75000  0.42610  0.42610
E97   E   0.77297  0.00000  0.14793
E98   E   0.77297  0.14793  0.50000
E99   E   0.77297  0.35207  0.00000
E100  E   0.77297  0.50000  0.35207
E101  E   0.85207  0.00000  0.27297
E102  E   0.85207  0.05105  0.09688
E103  E   0.85207  0.09688  0.44895
E104  E   0.85207  0.22703  0.00000
E105  E   0.85207  0.27297  0.50000
E106  E   0.85207  0.40312  0.05105
E107  E   0.85207  0.44895  0.40312
E108  E   0.85207  0.50000  0.22703
E109  E   0.90312  0.14793  0.94895
E110  E   0.90312  0.35207  0.55105
E111  E   0.90312  0.55105  0.14793
E112  E   0.90312  0.94895  0.35207
E113  E   0.92610  0.25000  0.57390
E114  E   0.92610  0.25000  0.92610
E115  E   0.92610  0.57390  0.25000
E116  E   0.92610  0.92610  0.25000
E117  E   0.94895  0.14793  0.59688
E118  E   0.94895  0.35207  0.90312
E119  E   0.94895  0.59688  0.35207
E120  E   0.94895  0.90312  0.14793
loop_
