data_fcx_Ia-3d  hall_number: 530, V_con: 5
_audit_creation_date              2025-03-05
_audit_creation_method            'MOFbuilder_1.0'
_symmetry_space_group_name_H-M    'P1'
_symmetry_Int_Tables_number       1
_symmetry_cell_setting            triclinic
loop_
_symmetry_equiv_pos_as_xyz
  x,y,z
_cell_length_a                    53.276
_cell_length_b                    53.276
_cell_length_c                    53.276
_cell_angle_alpha                 90.0
_cell_angle_beta                  90.0
_cell_angle_gamma                 90.0
loop_
_atom_site_label
_atom_site_type_symbol
_atom_site_fract_x
_atom_site_fract_y
_atom_site_fract_z
V1    V   0.02178  0.15871  0.44136
V2    V   0.02178  0.34129  0.94136
V3    V   0.02178  0.65871  0.55864
V4    V   0.02178  0.84129  0.05864
V5    V   0.05864  0.02178  0.84129
V6    V   0.05864  0.47822  0.34129
V7    V   0.05864  0.52178  0.15871
V8    V   0.05864  0.97822  0.65871
V9    V   0.09129  0.22822  0.80864
V10   V   0.09129  0.27178  0.30864
V11   V   0.09129  0.72822  0.19136
V12   V   0.09129  0.77178  0.69136
V13   V   0.15871  0.05864  0.52178
V14   V   0.15871  0.44136  0.02178
V15   V   0.15871  0.55864  0.47822
V16   V   0.15871  0.94136  0.97822
V17   V   0.19136  0.09129  0.72822
V18   V   0.19136  0.40871  0.22822
V19   V   0.19136  0.59129  0.27178
V20   V   0.19136  0.90871  0.77178
V21   V   0.22822  0.19136  0.40871
V22   V   0.22822  0.30864  0.90871
V23   V   0.22822  0.69136  0.59129
V24   V   0.22822  0.80864  0.09129
V25   V   0.27178  0.19136  0.59129
V26   V   0.27178  0.30864  0.09129
V27   V   0.27178  0.69136  0.40871
V28   V   0.27178  0.80864  0.90871
V29   V   0.30864  0.09129  0.27178
V30   V   0.30864  0.40871  0.77178
V31   V   0.30864  0.59129  0.72822
V32   V   0.30864  0.90871  0.22822
V33   V   0.34129  0.05864  0.47822
V34   V   0.34129  0.44136  0.97822
V35   V   0.34129  0.55864  0.52178
V36   V   0.34129  0.94136  0.02178
V37   V   0.40871  0.22822  0.19136
V38   V   0.40871  0.27178  0.69136
V39   V   0.40871  0.72822  0.80864
V40   V   0.40871  0.77178  0.30864
V41   V   0.44136  0.02178  0.15871
V42   V   0.44136  0.47822  0.65871
V43   V   0.44136  0.52178  0.84129
V44   V   0.44136  0.97822  0.34129
V45   V   0.47822  0.15871  0.55864
V46   V   0.47822  0.34129  0.05864
V47   V   0.47822  0.65871  0.44136
V48   V   0.47822  0.84129  0.94136
V49   V   0.52178  0.15871  0.05864
V50   V   0.52178  0.34129  0.55864
V51   V   0.52178  0.65871  0.94136
V52   V   0.52178  0.84129  0.44136
V53   V   0.55864  0.02178  0.65871
V54   V   0.55864  0.47822  0.15871
V55   V   0.55864  0.52178  0.34129
V56   V   0.55864  0.97822  0.84129
V57   V   0.59129  0.22822  0.69136
V58   V   0.59129  0.27178  0.19136
V59   V   0.59129  0.72822  0.30864
V60   V   0.59129  0.77178  0.80864
V61   V   0.65871  0.05864  0.97822
V62   V   0.65871  0.44136  0.47822
V63   V   0.65871  0.55864  0.02178
V64   V   0.65871  0.94136  0.52178
V65   V   0.69136  0.09129  0.77178
V66   V   0.69136  0.40871  0.27178
V67   V   0.69136  0.59129  0.22822
V68   V   0.69136  0.90871  0.72822
V69   V   0.72822  0.19136  0.09129
V70   V   0.72822  0.30864  0.59129
V71   V   0.72822  0.69136  0.90871
V72   V   0.72822  0.80864  0.40871
V73   V   0.77178  0.19136  0.90871
V74   V   0.77178  0.30864  0.40871
V75   V   0.77178  0.69136  0.09129
V76   V   0.77178  0.80864  0.59129
V77   V   0.80864  0.09129  0.22822
V78   V   0.80864  0.40871  0.72822
V79   V   0.80864  0.59129  0.77178
V80   V   0.80864  0.90871  0.27178
V81   V   0.84129  0.05864  0.02178
V82   V   0.84129  0.44136  0.52178
V83   V   0.84129  0.55864  0.97822
V84   V   0.84129  0.94136  0.47822
V85   V   0.90871  0.22822  0.30864
V86   V   0.90871  0.27178  0.80864
V87   V   0.90871  0.72822  0.69136
V88   V   0.90871  0.77178  0.19136
V89   V   0.94136  0.02178  0.34129
V90   V   0.94136  0.47822  0.84129
V91   V   0.94136  0.52178  0.65871
V92   V   0.94136  0.97822  0.15871
V93   V   0.97822  0.15871  0.94136
V94   V   0.97822  0.34129  0.44136
V95   V   0.97822  0.65871  0.05864
V96   V   0.97822  0.84129  0.55864
E1    E   0.00000  0.25000  0.30864
E2    E   0.00000  0.25000  0.44136
E3    E   0.00000  0.25000  0.80864
E4    E   0.00000  0.25000  0.94136
E5    E   0.00000  0.75000  0.05864
E6    E   0.00000  0.75000  0.19136
E7    E   0.00000  0.75000  0.55864
E8    E   0.00000  0.75000  0.69136
E9    E   0.01843  0.09025  0.89133
E10   E   0.01843  0.40975  0.39133
E11   E   0.01843  0.59025  0.10867
E12   E   0.01843  0.90975  0.60867
E13   E   0.03475  0.19346  0.87500
E14   E   0.03475  0.30654  0.37500
E15   E   0.03475  0.69346  0.12500
E16   E   0.03475  0.80654  0.62500
E17   E   0.05654  0.21525  0.37500
E18   E   0.05654  0.28475  0.87500
E19   E   0.05654  0.71525  0.62500
E20   E   0.05654  0.78475  0.12500
E21   E   0.05864  0.00000  0.75000
E22   E   0.05864  0.50000  0.25000
E23   E   0.09025  0.10867  0.48157
E24   E   0.09025  0.39133  0.98157
E25   E   0.09025  0.60867  0.51843
E26   E   0.09025  0.89133  0.01843
E27   E   0.10867  0.01843  0.59025
E28   E   0.10867  0.48157  0.09025
E29   E   0.10867  0.51843  0.40975
E30   E   0.10867  0.98157  0.90975
E31   E   0.12500  0.03475  0.69346
E32   E   0.12500  0.05654  0.78475
E33   E   0.12500  0.44346  0.28475
E34   E   0.12500  0.46525  0.19346
E35   E   0.12500  0.53475  0.30654
E36   E   0.12500  0.55654  0.21525
E37   E   0.12500  0.94346  0.71525
E38   E   0.12500  0.96525  0.80654
E39   E   0.14133  0.15975  0.76843
E40   E   0.14133  0.34025  0.26843
E41   E   0.14133  0.65975  0.23157
E42   E   0.14133  0.84025  0.73157
E43   E   0.15975  0.23157  0.35867
E44   E   0.15975  0.26843  0.85867
E45   E   0.15975  0.73157  0.64133
E46   E   0.15975  0.76843  0.14133
E47   E   0.19136  0.00000  0.75000
E48   E   0.19136  0.50000  0.25000
E49   E   0.19346  0.12500  0.46525
E50   E   0.19346  0.37500  0.96525
E51   E   0.19346  0.62500  0.53475
E52   E   0.19346  0.87500  0.03475
E53   E   0.21525  0.12500  0.55654
E54   E   0.21525  0.37500  0.05654
E55   E   0.21525  0.62500  0.44346
E56   E   0.21525  0.87500  0.94346
E57   E   0.23157  0.14133  0.65975
E58   E   0.23157  0.35867  0.15975
E59   E   0.23157  0.64133  0.34025
E60   E   0.23157  0.85867  0.84025
E61   E   0.25000  0.05864  0.50000
E62   E   0.25000  0.19136  0.50000
E63   E   0.25000  0.30864  0.00000
E64   E   0.25000  0.44136  0.00000
E65   E   0.25000  0.55864  0.50000
E66   E   0.25000  0.69136  0.50000
E67   E   0.25000  0.80864  0.00000
E68   E   0.25000  0.94136  0.00000
E69   E   0.26843  0.14133  0.34025
E70   E   0.26843  0.35867  0.84025
E71   E   0.26843  0.64133  0.65975
E72   E   0.26843  0.85867  0.15975
E73   E   0.28475  0.12500  0.44346
E74   E   0.28475  0.37500  0.94346
E75   E   0.28475  0.62500  0.55654
E76   E   0.28475  0.87500  0.05654
E77   E   0.30654  0.12500  0.53475
E78   E   0.30654  0.37500  0.03475
E79   E   0.30654  0.62500  0.46525
E80   E   0.30654  0.87500  0.96525
E81   E   0.30864  0.00000  0.25000
E82   E   0.30864  0.50000  0.75000
E83   E   0.34025  0.23157  0.64133
E84   E   0.34025  0.26843  0.14133
E85   E   0.34025  0.73157  0.35867
E86   E   0.34025  0.76843  0.85867
E87   E   0.35867  0.15975  0.23157
E88   E   0.35867  0.34025  0.73157
E89   E   0.35867  0.65975  0.76843
E90   E   0.35867  0.84025  0.26843
E91   E   0.37500  0.03475  0.30654
E92   E   0.37500  0.05654  0.21525
E93   E   0.37500  0.44346  0.71525
E94   E   0.37500  0.46525  0.80654
E95   E   0.37500  0.53475  0.69346
E96   E   0.37500  0.55654  0.78475
E97   E   0.37500  0.94346  0.28475
E98   E   0.37500  0.96525  0.19346
E99   E   0.39133  0.01843  0.40975
E100  E   0.39133  0.48157  0.90975
E101  E   0.39133  0.51843  0.59025
E102  E   0.39133  0.98157  0.09025
E103  E   0.40975  0.10867  0.51843
E104  E   0.40975  0.39133  0.01843
E105  E   0.40975  0.60867  0.48157
E106  E   0.40975  0.89133  0.98157
E107  E   0.44136  0.00000  0.25000
E108  E   0.44136  0.50000  0.75000
E109  E   0.44346  0.21525  0.62500
E110  E   0.44346  0.28475  0.12500
E111  E   0.44346  0.71525  0.37500
E112  E   0.44346  0.78475  0.87500
E113  E   0.46525  0.19346  0.12500
E114  E   0.46525  0.30654  0.62500
E115  E   0.46525  0.69346  0.87500
E116  E   0.46525  0.80654  0.37500
E117  E   0.48157  0.09025  0.10867
E118  E   0.48157  0.40975  0.60867
E119  E   0.48157  0.59025  0.89133
E120  E   0.48157  0.90975  0.39133
E121  E   0.50000  0.25000  0.05864
E122  E   0.50000  0.25000  0.19136
E123  E   0.50000  0.25000  0.55864
E124  E   0.50000  0.25000  0.69136
E125  E   0.50000  0.75000  0.30864
E126  E   0.50000  0.75000  0.44136
E127  E   0.50000  0.75000  0.80864
E128  E   0.50000  0.75000  0.94136
E129  E   0.51843  0.09025  0.60867
E130  E   0.51843  0.40975  0.10867
E131  E   0.51843  0.59025  0.39133
E132  E   0.51843  0.90975  0.89133
E133  E   0.53475  0.19346  0.62500
E134  E   0.53475  0.30654  0.12500
E135  E   0.53475  0.69346  0.37500
E136  E   0.53475  0.80654  0.87500
E137  E   0.55654  0.21525  0.12500
E138  E   0.55654  0.28475  0.62500
E139  E   0.55654  0.71525  0.87500
E140  E   0.55654  0.78475  0.37500
E141  E   0.55864  0.00000  0.75000
E142  E   0.55864  0.50000  0.25000
E143  E   0.59025  0.10867  0.01843
E144  E   0.59025  0.39133  0.51843
E145  E   0.59025  0.60867  0.98157
E146  E   0.59025  0.89133  0.48157
E147  E   0.60867  0.01843  0.90975
E148  E   0.60867  0.48157  0.40975
E149  E   0.60867  0.51843  0.09025
E150  E   0.60867  0.98157  0.59025
E151  E   0.62500  0.03475  0.80654
E152  E   0.62500  0.05654  0.71525
E153  E   0.62500  0.44346  0.21525
E154  E   0.62500  0.46525  0.30654
E155  E   0.62500  0.53475  0.19346
E156  E   0.62500  0.55654  0.28475
E157  E   0.62500  0.94346  0.78475
E158  E   0.62500  0.96525  0.69346
E159  E   0.64133  0.15975  0.73157
E160  E   0.64133  0.34025  0.23157
E161  E   0.64133  0.65975  0.26843
E162  E   0.64133  0.84025  0.76843
E163  E   0.65975  0.23157  0.14133
E164  E   0.65975  0.26843  0.64133
E165  E   0.65975  0.73157  0.85867
E166  E   0.65975  0.76843  0.35867
E167  E   0.69136  0.00000  0.75000
E168  E   0.69136  0.50000  0.25000
E169  E   0.69346  0.12500  0.03475
E170  E   0.69346  0.37500  0.53475
E171  E   0.69346  0.62500  0.96525
E172  E   0.69346  0.87500  0.46525
E173  E   0.71525  0.12500  0.94346
E174  E   0.71525  0.37500  0.44346
E175  E   0.71525  0.62500  0.05654
E176  E   0.71525  0.87500  0.55654
E177  E   0.73157  0.14133  0.84025
E178  E   0.73157  0.35867  0.34025
E179  E   0.73157  0.64133  0.15975
E180  E   0.73157  0.85867  0.65975
E181  E   0.75000  0.05864  0.00000
E182  E   0.75000  0.19136  0.00000
E183  E   0.75000  0.30864  0.50000
E184  E   0.75000  0.44136  0.50000
E185  E   0.75000  0.55864  0.00000
E186  E   0.75000  0.69136  0.00000
E187  E   0.75000  0.80864  0.50000
E188  E   0.75000  0.94136  0.50000
E189  E   0.76843  0.14133  0.15975
E190  E   0.76843  0.35867  0.65975
E191  E   0.76843  0.64133  0.84025
E192  E   0.76843  0.85867  0.34025
E193  E   0.78475  0.12500  0.05654
E194  E   0.78475  0.37500  0.55654
E195  E   0.78475  0.62500  0.94346
E196  E   0.78475  0.87500  0.44346
E197  E   0.80654  0.12500  0.96525
E198  E   0.80654  0.37500  0.46525
E199  E   0.80654  0.62500  0.03475
E200  E   0.80654  0.87500  0.53475
E201  E   0.80864  0.00000  0.25000
E202  E   0.80864  0.50000  0.75000
E203  E   0.84025  0.23157  0.85867
E204  E   0.84025  0.26843  0.35867
E205  E   0.84025  0.73157  0.14133
E206  E   0.84025  0.76843  0.64133
E207  E   0.85867  0.15975  0.26843
E208  E   0.85867  0.34025  0.76843
E209  E   0.85867  0.65975  0.73157
E210  E   0.85867  0.84025  0.23157
E211  E   0.87500  0.03475  0.19346
E212  E   0.87500  0.05654  0.28475
E213  E   0.87500  0.44346  0.78475
E214  E   0.87500  0.46525  0.69346
E215  E   0.87500  0.53475  0.80654
E216  E   0.87500  0.55654  0.71525
E217  E   0.87500  0.94346  0.21525
E218  E   0.87500  0.96525  0.30654
E219  E   0.89133  0.01843  0.09025
E220  E   0.89133  0.48157  0.59025
E221  E   0.89133  0.51843  0.90975
E222  E   0.89133  0.98157  0.40975
E223  E   0.90975  0.10867  0.98157
E224  E   0.90975  0.39133  0.48157
E225  E   0.90975  0.60867  0.01843
E226  E   0.90975  0.89133  0.51843
E227  E   0.94136  0.00000  0.25000
E228  E   0.94136  0.50000  0.75000
E229  E   0.94346  0.21525  0.87500
E230  E   0.94346  0.28475  0.37500
E231  E   0.94346  0.71525  0.12500
E232  E   0.94346  0.78475  0.62500
E233  E   0.96525  0.19346  0.37500
E234  E   0.96525  0.30654  0.87500
E235  E   0.96525  0.69346  0.62500
E236  E   0.96525  0.80654  0.12500
E237  E   0.98157  0.09025  0.39133
E238  E   0.98157  0.40975  0.89133
E239  E   0.98157  0.59025  0.60867
E240  E   0.98157  0.90975  0.10867
loop_
