data_fel_C12/m1  hall_number: 71, V_con: 4, EC_con: 4
_audit_creation_date              2025-03-05
_audit_creation_method            'MOFbuilder_1.0'
_symmetry_space_group_name_H-M    'P1'
_symmetry_Int_Tables_number       1
_symmetry_cell_setting            triclinic
loop_
_symmetry_equiv_pos_as_xyz
  x,y,z
_cell_length_a                    32.1142
_cell_length_b                    40.1134
_cell_length_c                    23.5844
_cell_angle_alpha                 90.0
_cell_angle_beta                  110.2668
_cell_angle_gamma                 90.0
loop_
_atom_site_label
_atom_site_type_symbol
_atom_site_fract_x
_atom_site_fract_y
_atom_site_fract_z
V1    V   0.17318  0.12465  0.13936
V2    V   0.17318  0.87535  0.86064
V3    V   0.32682  0.37535  0.36064
V4    V   0.32682  0.62465  0.63936
V5    V   0.67318  0.37535  0.36064
V6    V   0.67318  0.62465  0.63936
V7    V   0.82682  0.12465  0.13936
V8    V   0.82682  0.87535  0.86064
EC1    EC   0.06190  0.22526  0.22591
EC2    EC   0.06190  0.77474  0.77409
EC3    EC   0.43810  0.27474  0.27409
EC4    EC   0.43810  0.72526  0.72591
EC5    EC   0.56190  0.27474  0.27409
EC6    EC   0.56190  0.72526  0.72591
EC7    EC   0.93810  0.22526  0.22591
EC8    EC   0.93810  0.77474  0.77409
E1    E   0.00000  0.22526  0.00000
E2    E   0.00000  0.77474  0.00000
E3    E   0.05564  0.17495  0.29328
E4    E   0.05564  0.82505  0.70672
E5    E   0.11754  0.17495  0.43263
E6    E   0.11754  0.82505  0.56737
E7    E   0.17318  0.00000  0.13936
E8    E   0.17318  0.00000  0.86064
E9    E   0.19436  0.30031  0.29328
E10   E   0.19436  0.69969  0.70672
E11   E   0.30564  0.19969  0.20672
E12   E   0.30564  0.80031  0.79328
E13   E   0.32682  0.50000  0.36064
E14   E   0.32682  0.50000  0.63936
E15   E   0.38246  0.32505  0.06737
E16   E   0.38246  0.67495  0.93263
E17   E   0.44436  0.32505  0.20672
E18   E   0.44436  0.67495  0.79328
E19   E   0.50000  0.27474  0.50000
E20   E   0.50000  0.72526  0.50000
E21   E   0.55564  0.32505  0.20672
E22   E   0.55564  0.67495  0.79328
E23   E   0.61754  0.32505  0.06737
E24   E   0.61754  0.67495  0.93263
E25   E   0.67318  0.50000  0.36064
E26   E   0.67318  0.50000  0.63936
E27   E   0.69436  0.19969  0.20672
E28   E   0.69436  0.80031  0.79328
E29   E   0.80564  0.30031  0.29328
E30   E   0.80564  0.69969  0.70672
E31   E   0.82682  0.00000  0.13936
E32   E   0.82682  0.00000  0.86064
E33   E   0.88246  0.17495  0.43263
E34   E   0.88246  0.82505  0.56737
E35   E   0.94436  0.17495  0.29328
E36   E   0.94436  0.82505  0.70672
loop_
