data_flu-a_Fm-3m  hall_number: 523, V_con: 4, EC_con: 4
_audit_creation_date              2025-03-05
_audit_creation_method            'MOFbuilder_1.0'
_symmetry_space_group_name_H-M    'P1'
_symmetry_Int_Tables_number       1
_symmetry_cell_setting            triclinic
loop_
_symmetry_equiv_pos_as_xyz
  x,y,z
_cell_length_a                    57.2363
_cell_length_b                    57.2363
_cell_length_c                    57.2363
_cell_angle_alpha                 90.0
_cell_angle_beta                  90.0
_cell_angle_gamma                 90.0
loop_
_atom_site_label
_atom_site_type_symbol
_atom_site_fract_x
_atom_site_fract_y
_atom_site_fract_z
V1    V   0.08736  0.08736  0.41264
V2    V   0.08736  0.08736  0.58736
V3    V   0.08736  0.41264  0.08736
V4    V   0.08736  0.41264  0.91264
V5    V   0.08736  0.58736  0.08736
V6    V   0.08736  0.58736  0.91264
V7    V   0.08736  0.91264  0.41264
V8    V   0.08736  0.91264  0.58736
V9    V   0.41264  0.08736  0.08736
V10   V   0.41264  0.08736  0.91264
V11   V   0.41264  0.41264  0.41264
V12   V   0.41264  0.41264  0.58736
V13   V   0.41264  0.58736  0.41264
V14   V   0.41264  0.58736  0.58736
V15   V   0.41264  0.91264  0.08736
V16   V   0.41264  0.91264  0.91264
V17   V   0.58736  0.08736  0.08736
V18   V   0.58736  0.08736  0.91264
V19   V   0.58736  0.41264  0.41264
V20   V   0.58736  0.41264  0.58736
V21   V   0.58736  0.58736  0.41264
V22   V   0.58736  0.58736  0.58736
V23   V   0.58736  0.91264  0.08736
V24   V   0.58736  0.91264  0.91264
V25   V   0.91264  0.08736  0.41264
V26   V   0.91264  0.08736  0.58736
V27   V   0.91264  0.41264  0.08736
V28   V   0.91264  0.41264  0.91264
V29   V   0.91264  0.58736  0.08736
V30   V   0.91264  0.58736  0.91264
V31   V   0.91264  0.91264  0.41264
V32   V   0.91264  0.91264  0.58736
EC1    EC   0.18823  0.18823  0.31177
EC2    EC   0.18823  0.18823  0.68823
EC3    EC   0.18823  0.31177  0.18823
EC4    EC   0.18823  0.31177  0.81177
EC5    EC   0.18823  0.68823  0.18823
EC6    EC   0.18823  0.68823  0.81177
EC7    EC   0.18823  0.81177  0.31177
EC8    EC   0.18823  0.81177  0.68823
EC9    EC   0.31177  0.18823  0.18823
EC10   EC   0.31177  0.18823  0.81177
EC11   EC   0.31177  0.31177  0.31177
EC12   EC   0.31177  0.31177  0.68823
EC13   EC   0.31177  0.68823  0.31177
EC14   EC   0.31177  0.68823  0.68823
EC15   EC   0.31177  0.81177  0.18823
EC16   EC   0.31177  0.81177  0.81177
EC17   EC   0.68823  0.18823  0.18823
EC18   EC   0.68823  0.18823  0.81177
EC19   EC   0.68823  0.31177  0.31177
EC20   EC   0.68823  0.31177  0.68823
EC21   EC   0.68823  0.68823  0.31177
EC22   EC   0.68823  0.68823  0.68823
EC23   EC   0.68823  0.81177  0.18823
EC24   EC   0.68823  0.81177  0.81177
EC25   EC   0.81177  0.18823  0.31177
EC26   EC   0.81177  0.18823  0.68823
EC27   EC   0.81177  0.31177  0.18823
EC28   EC   0.81177  0.31177  0.81177
EC29   EC   0.81177  0.68823  0.18823
EC30   EC   0.81177  0.68823  0.81177
EC31   EC   0.81177  0.81177  0.31177
EC32   EC   0.81177  0.81177  0.68823
E1    E   0.00000  0.08736  0.41264
E2    E   0.00000  0.08736  0.58736
E3    E   0.00000  0.41264  0.08736
E4    E   0.00000  0.41264  0.91264
E5    E   0.00000  0.58736  0.08736
E6    E   0.00000  0.58736  0.91264
E7    E   0.00000  0.91264  0.41264
E8    E   0.00000  0.91264  0.58736
E9    E   0.08736  0.00000  0.41264
E10   E   0.08736  0.00000  0.58736
E11   E   0.08736  0.08736  0.50000
E12   E   0.08736  0.41264  0.00000
E13   E   0.08736  0.50000  0.08736
E14   E   0.08736  0.50000  0.91264
E15   E   0.08736  0.58736  0.00000
E16   E   0.08736  0.91264  0.50000
E17   E   0.13779  0.13779  0.36221
E18   E   0.13779  0.13779  0.63779
E19   E   0.13779  0.13779  0.36221
E20   E   0.13779  0.13779  0.63779
E21   E   0.13779  0.36221  0.13779
E22   E   0.13779  0.36221  0.86221
E23   E   0.13779  0.36221  0.13779
E24   E   0.13779  0.36221  0.86221
E25   E   0.13779  0.63779  0.13779
E26   E   0.13779  0.63779  0.86221
E27   E   0.13779  0.63779  0.13779
E28   E   0.13779  0.63779  0.86221
E29   E   0.13779  0.86221  0.36221
E30   E   0.13779  0.86221  0.63779
E31   E   0.13779  0.86221  0.36221
E32   E   0.13779  0.86221  0.63779
E33   E   0.13779  0.13779  0.36221
E34   E   0.13779  0.13779  0.63779
E35   E   0.13779  0.36221  0.13779
E36   E   0.13779  0.36221  0.86221
E37   E   0.13779  0.63779  0.13779
E38   E   0.13779  0.63779  0.86221
E39   E   0.13779  0.86221  0.36221
E40   E   0.13779  0.86221  0.63779
E41   E   0.18823  0.25000  0.25000
E42   E   0.18823  0.25000  0.75000
E43   E   0.18823  0.75000  0.25000
E44   E   0.18823  0.75000  0.75000
E45   E   0.25000  0.18823  0.25000
E46   E   0.25000  0.18823  0.75000
E47   E   0.25000  0.25000  0.18823
E48   E   0.25000  0.25000  0.31177
E49   E   0.25000  0.25000  0.68823
E50   E   0.25000  0.25000  0.81177
E51   E   0.25000  0.31177  0.25000
E52   E   0.25000  0.31177  0.75000
E53   E   0.25000  0.68823  0.25000
E54   E   0.25000  0.68823  0.75000
E55   E   0.25000  0.75000  0.18823
E56   E   0.25000  0.75000  0.31177
E57   E   0.25000  0.75000  0.68823
E58   E   0.25000  0.75000  0.81177
E59   E   0.25000  0.81177  0.25000
E60   E   0.25000  0.81177  0.75000
E61   E   0.31177  0.25000  0.25000
E62   E   0.31177  0.25000  0.75000
E63   E   0.31177  0.75000  0.25000
E64   E   0.31177  0.75000  0.75000
E65   E   0.36221  0.13779  0.13779
E66   E   0.36221  0.13779  0.86221
E67   E   0.36221  0.36221  0.36221
E68   E   0.36221  0.36221  0.63779
E69   E   0.36221  0.63779  0.36221
E70   E   0.36221  0.63779  0.63779
E71   E   0.36221  0.86221  0.13779
E72   E   0.36221  0.86221  0.86221
E73   E   0.36221  0.13779  0.13779
E74   E   0.36221  0.13779  0.86221
E75   E   0.36221  0.13779  0.13779
E76   E   0.36221  0.13779  0.86221
E77   E   0.36221  0.36221  0.36221
E78   E   0.36221  0.36221  0.63779
E79   E   0.36221  0.36221  0.36221
E80   E   0.36221  0.36221  0.63779
E81   E   0.36221  0.63779  0.36221
E82   E   0.36221  0.63779  0.63779
E83   E   0.36221  0.63779  0.36221
E84   E   0.36221  0.63779  0.63779
E85   E   0.36221  0.86221  0.13779
E86   E   0.36221  0.86221  0.86221
E87   E   0.36221  0.86221  0.13779
E88   E   0.36221  0.86221  0.86221
E89   E   0.41264  0.00000  0.08736
E90   E   0.41264  0.00000  0.91264
E91   E   0.41264  0.08736  0.00000
E92   E   0.41264  0.41264  0.50000
E93   E   0.41264  0.50000  0.41264
E94   E   0.41264  0.50000  0.58736
E95   E   0.41264  0.58736  0.50000
E96   E   0.41264  0.91264  0.00000
E97   E   0.50000  0.08736  0.08736
E98   E   0.50000  0.08736  0.91264
E99   E   0.50000  0.41264  0.41264
E100  E   0.50000  0.41264  0.58736
E101  E   0.50000  0.58736  0.41264
E102  E   0.50000  0.58736  0.58736
E103  E   0.50000  0.91264  0.08736
E104  E   0.50000  0.91264  0.91264
E105  E   0.58736  0.00000  0.08736
E106  E   0.58736  0.00000  0.91264
E107  E   0.58736  0.08736  0.00000
E108  E   0.58736  0.41264  0.50000
E109  E   0.58736  0.50000  0.41264
E110  E   0.58736  0.50000  0.58736
E111  E   0.58736  0.58736  0.50000
E112  E   0.58736  0.91264  0.00000
E113  E   0.63779  0.13779  0.13779
E114  E   0.63779  0.13779  0.86221
E115  E   0.63779  0.13779  0.13779
E116  E   0.63779  0.13779  0.86221
E117  E   0.63779  0.36221  0.36221
E118  E   0.63779  0.36221  0.63779
E119  E   0.63779  0.36221  0.36221
E120  E   0.63779  0.36221  0.63779
E121  E   0.63779  0.63779  0.36221
E122  E   0.63779  0.63779  0.63779
E123  E   0.63779  0.63779  0.36221
E124  E   0.63779  0.63779  0.63779
E125  E   0.63779  0.86221  0.13779
E126  E   0.63779  0.86221  0.86221
E127  E   0.63779  0.86221  0.13779
E128  E   0.63779  0.86221  0.86221
E129  E   0.63779  0.13779  0.13779
E130  E   0.63779  0.13779  0.86221
E131  E   0.63779  0.36221  0.36221
E132  E   0.63779  0.36221  0.63779
E133  E   0.63779  0.63779  0.36221
E134  E   0.63779  0.63779  0.63779
E135  E   0.63779  0.86221  0.13779
E136  E   0.63779  0.86221  0.86221
E137  E   0.68823  0.25000  0.25000
E138  E   0.68823  0.25000  0.75000
E139  E   0.68823  0.75000  0.25000
E140  E   0.68823  0.75000  0.75000
E141  E   0.75000  0.18823  0.25000
E142  E   0.75000  0.18823  0.75000
E143  E   0.75000  0.25000  0.18823
E144  E   0.75000  0.25000  0.31177
E145  E   0.75000  0.25000  0.68823
E146  E   0.75000  0.25000  0.81177
E147  E   0.75000  0.31177  0.25000
E148  E   0.75000  0.31177  0.75000
E149  E   0.75000  0.68823  0.25000
E150  E   0.75000  0.68823  0.75000
E151  E   0.75000  0.75000  0.18823
E152  E   0.75000  0.75000  0.31177
E153  E   0.75000  0.75000  0.68823
E154  E   0.75000  0.75000  0.81177
E155  E   0.75000  0.81177  0.25000
E156  E   0.75000  0.81177  0.75000
E157  E   0.81177  0.25000  0.25000
E158  E   0.81177  0.25000  0.75000
E159  E   0.81177  0.75000  0.25000
E160  E   0.81177  0.75000  0.75000
E161  E   0.86221  0.13779  0.36221
E162  E   0.86221  0.13779  0.63779
E163  E   0.86221  0.36221  0.13779
E164  E   0.86221  0.36221  0.86221
E165  E   0.86221  0.63779  0.13779
E166  E   0.86221  0.63779  0.86221
E167  E   0.86221  0.86221  0.36221
E168  E   0.86221  0.86221  0.63779
E169  E   0.86221  0.13779  0.36221
E170  E   0.86221  0.13779  0.63779
E171  E   0.86221  0.13779  0.36221
E172  E   0.86221  0.13779  0.63779
E173  E   0.86221  0.36221  0.13779
E174  E   0.86221  0.36221  0.86221
E175  E   0.86221  0.36221  0.13779
E176  E   0.86221  0.36221  0.86221
E177  E   0.86221  0.63779  0.13779
E178  E   0.86221  0.63779  0.86221
E179  E   0.86221  0.63779  0.13779
E180  E   0.86221  0.63779  0.86221
E181  E   0.86221  0.86221  0.36221
E182  E   0.86221  0.86221  0.63779
E183  E   0.86221  0.86221  0.36221
E184  E   0.86221  0.86221  0.63779
E185  E   0.91264  0.00000  0.41264
E186  E   0.91264  0.00000  0.58736
E187  E   0.91264  0.08736  0.50000
E188  E   0.91264  0.41264  0.00000
E189  E   0.91264  0.50000  0.08736
E190  E   0.91264  0.50000  0.91264
E191  E   0.91264  0.58736  0.00000
E192  E   0.91264  0.91264  0.50000
loop_
