data_fnb_Im-3  hall_number: 500, V_con: 5
_audit_creation_date              2025-03-05
_audit_creation_method            'MOFbuilder_1.0'
_symmetry_space_group_name_H-M    'P1'
_symmetry_Int_Tables_number       1
_symmetry_cell_setting            triclinic
loop_
_symmetry_equiv_pos_as_xyz
  x,y,z
_cell_length_a                    27.320500000000003
_cell_length_b                    27.320500000000003
_cell_length_c                    27.320500000000003
_cell_angle_alpha                 90.0
_cell_angle_beta                  90.0
_cell_angle_gamma                 90.0
loop_
_atom_site_label
_atom_site_type_symbol
_atom_site_fract_x
_atom_site_fract_y
_atom_site_fract_z
V1    V   0.00000  0.18301  0.50000
V2    V   0.00000  0.50000  0.31699
V3    V   0.00000  0.50000  0.68301
V4    V   0.00000  0.81699  0.50000
V5    V   0.18301  0.50000  0.00000
V6    V   0.31699  0.00000  0.50000
V7    V   0.50000  0.00000  0.18301
V8    V   0.50000  0.00000  0.81699
V9    V   0.50000  0.31699  0.00000
V10   V   0.50000  0.68301  0.00000
V11   V   0.68301  0.00000  0.50000
V12   V   0.81699  0.50000  0.00000
E1    E   0.00000  0.00000  0.50000
E2    E   0.00000  0.34151  0.40849
E3    E   0.00000  0.34151  0.59151
E4    E   0.00000  0.50000  0.00000
E5    E   0.00000  0.50000  0.50000
E6    E   0.00000  0.65849  0.40849
E7    E   0.00000  0.65849  0.59151
E8    E   0.09151  0.50000  0.15849
E9    E   0.09151  0.50000  0.84151
E10   E   0.15849  0.09151  0.50000
E11   E   0.15849  0.90849  0.50000
E12   E   0.34151  0.40849  0.00000
E13   E   0.34151  0.59151  0.00000
E14   E   0.40849  0.00000  0.34151
E15   E   0.40849  0.00000  0.65849
E16   E   0.50000  0.00000  0.00000
E17   E   0.50000  0.00000  0.50000
E18   E   0.50000  0.15849  0.09151
E19   E   0.50000  0.15849  0.90849
E20   E   0.50000  0.50000  0.00000
E21   E   0.50000  0.84151  0.09151
E22   E   0.50000  0.84151  0.90849
E23   E   0.59151  0.00000  0.34151
E24   E   0.59151  0.00000  0.65849
E25   E   0.65849  0.40849  0.00000
E26   E   0.65849  0.59151  0.00000
E27   E   0.84151  0.09151  0.50000
E28   E   0.84151  0.90849  0.50000
E29   E   0.90849  0.50000  0.15849
E30   E   0.90849  0.50000  0.84151
loop_
