data_fnp_Pn-3m:2  hall_number: 522, V_con: 5
_audit_creation_date              2025-03-05
_audit_creation_method            'MOFbuilder_1.0'
_symmetry_space_group_name_H-M    'P1'
_symmetry_Int_Tables_number       1
_symmetry_cell_setting            triclinic
loop_
_symmetry_equiv_pos_as_xyz
  x,y,z
_cell_length_a                    34.1421
_cell_length_b                    34.1421
_cell_length_c                    34.1421
_cell_angle_alpha                 90.0
_cell_angle_beta                  90.0
_cell_angle_gamma                 90.0
loop_
_atom_site_label
_atom_site_type_symbol
_atom_site_fract_x
_atom_site_fract_y
_atom_site_fract_z
V1    V   0.14645  0.64645  0.85355
V2    V   0.14645  0.85355  0.64645
V3    V   0.14645  0.14645  0.64645
V4    V   0.14645  0.35355  0.85355
V5    V   0.14645  0.64645  0.14645
V6    V   0.14645  0.85355  0.35355
V7    V   0.35355  0.14645  0.85355
V8    V   0.35355  0.35355  0.64645
V9    V   0.35355  0.64645  0.35355
V10   V   0.35355  0.64645  0.64645
V11   V   0.35355  0.85355  0.14645
V12   V   0.35355  0.85355  0.85355
V13   V   0.64645  0.14645  0.85355
V14   V   0.64645  0.14645  0.14645
V15   V   0.64645  0.35355  0.35355
V16   V   0.64645  0.35355  0.64645
V17   V   0.64645  0.64645  0.35355
V18   V   0.64645  0.85355  0.14645
V19   V   0.85355  0.14645  0.64645
V20   V   0.85355  0.14645  0.35355
V21   V   0.85355  0.35355  0.14645
V22   V   0.85355  0.35355  0.85355
V23   V   0.85355  0.64645  0.14645
V24   V   0.85355  0.85355  0.35355
E1    E   0.00000  0.14645  0.64645
E2    E   0.00000  0.14645  0.64645
E3    E   0.00000  0.35355  0.85355
E4    E   0.00000  0.64645  0.14645
E5    E   0.00000  0.64645  0.14645
E6    E   0.00000  0.85355  0.35355
E7    E   0.14645  0.00000  0.64645
E8    E   0.14645  0.50000  0.85355
E9    E   0.14645  0.64645  0.00000
E10   E   0.14645  0.75000  0.75000
E11   E   0.14645  0.85355  0.50000
E12   E   0.14645  0.00000  0.64645
E13   E   0.14645  0.25000  0.75000
E14   E   0.14645  0.50000  0.85355
E15   E   0.14645  0.64645  0.00000
E16   E   0.14645  0.75000  0.25000
E17   E   0.14645  0.85355  0.50000
E18   E   0.25000  0.14645  0.75000
E19   E   0.25000  0.25000  0.64645
E20   E   0.25000  0.25000  0.85355
E21   E   0.25000  0.35355  0.75000
E22   E   0.25000  0.64645  0.25000
E23   E   0.25000  0.64645  0.75000
E24   E   0.25000  0.75000  0.14645
E25   E   0.25000  0.75000  0.35355
E26   E   0.25000  0.75000  0.64645
E27   E   0.25000  0.75000  0.85355
E28   E   0.25000  0.85355  0.25000
E29   E   0.25000  0.85355  0.75000
E30   E   0.35355  0.00000  0.85355
E31   E   0.35355  0.25000  0.75000
E32   E   0.35355  0.50000  0.64645
E33   E   0.35355  0.64645  0.50000
E34   E   0.35355  0.75000  0.25000
E35   E   0.35355  0.75000  0.75000
E36   E   0.35355  0.85355  0.00000
E37   E   0.50000  0.14645  0.85355
E38   E   0.50000  0.14645  0.85355
E39   E   0.50000  0.35355  0.64645
E40   E   0.50000  0.64645  0.35355
E41   E   0.50000  0.85355  0.14645
E42   E   0.50000  0.85355  0.14645
E43   E   0.64645  0.00000  0.14645
E44   E   0.64645  0.00000  0.14645
E45   E   0.64645  0.14645  0.00000
E46   E   0.64645  0.14645  0.00000
E47   E   0.64645  0.25000  0.25000
E48   E   0.64645  0.25000  0.75000
E49   E   0.64645  0.35355  0.50000
E50   E   0.64645  0.50000  0.35355
E51   E   0.64645  0.75000  0.25000
E52   E   0.75000  0.14645  0.75000
E53   E   0.75000  0.14645  0.25000
E54   E   0.75000  0.25000  0.14645
E55   E   0.75000  0.25000  0.35355
E56   E   0.75000  0.25000  0.64645
E57   E   0.75000  0.25000  0.85355
E58   E   0.75000  0.35355  0.25000
E59   E   0.75000  0.35355  0.75000
E60   E   0.75000  0.64645  0.25000
E61   E   0.75000  0.75000  0.14645
E62   E   0.75000  0.75000  0.35355
E63   E   0.75000  0.85355  0.25000
E64   E   0.85355  0.00000  0.35355
E65   E   0.85355  0.14645  0.50000
E66   E   0.85355  0.14645  0.50000
E67   E   0.85355  0.25000  0.25000
E68   E   0.85355  0.25000  0.75000
E69   E   0.85355  0.35355  0.00000
E70   E   0.85355  0.50000  0.14645
E71   E   0.85355  0.50000  0.14645
E72   E   0.85355  0.75000  0.25000
loop_
