data_fon_P42/nmc:2  hall_number: 421, V_con: 12, EC_con: 3
_audit_creation_date              2025-03-05
_audit_creation_method            'MOFbuilder_1.0'
_symmetry_space_group_name_H-M    'P1'
_symmetry_Int_Tables_number       1
_symmetry_cell_setting            triclinic
loop_
_symmetry_equiv_pos_as_xyz
  x,y,z
_cell_length_a                    17.3248
_cell_length_b                    17.3248
_cell_length_c                    24.4827
_cell_angle_alpha                 90.0
_cell_angle_beta                  90.0
_cell_angle_gamma                 90.0
loop_
_atom_site_label
_atom_site_type_symbol
_atom_site_fract_x
_atom_site_fract_y
_atom_site_fract_z
V1    V   0.25000  0.75000  0.25000
V2    V   0.75000  0.25000  0.75000
EC1    EC   0.08288  0.25000  0.41632
EC2    EC   0.25000  0.08288  0.91632
EC3    EC   0.25000  0.41712  0.91632
EC4    EC   0.41712  0.25000  0.41632
EC5    EC   0.58288  0.75000  0.58368
EC6    EC   0.75000  0.58288  0.08368
EC7    EC   0.75000  0.91712  0.08368
EC8    EC   0.91712  0.75000  0.58368
E1    E   0.00000  0.16644  0.83316
E2    E   0.00000  0.33356  0.83316
E3    E   0.00000  0.66644  0.16684
E4    E   0.00000  0.83356  0.16684
E5    E   0.08356  0.75000  0.41684
E6    E   0.16644  0.00000  0.33316
E7    E   0.16644  0.50000  0.33316
E8    E   0.25000  0.58356  0.08316
E9    E   0.25000  0.91644  0.08316
E10   E   0.33356  0.00000  0.33316
E11   E   0.33356  0.50000  0.33316
E12   E   0.41644  0.75000  0.41684
E13   E   0.50000  0.16644  0.83316
E14   E   0.50000  0.33356  0.83316
E15   E   0.50000  0.66644  0.16684
E16   E   0.50000  0.83356  0.16684
E17   E   0.58356  0.25000  0.58316
E18   E   0.66644  0.00000  0.66684
E19   E   0.66644  0.50000  0.66684
E20   E   0.75000  0.08356  0.91684
E21   E   0.75000  0.41644  0.91684
E22   E   0.83356  0.00000  0.66684
E23   E   0.83356  0.50000  0.66684
E24   E   0.91644  0.25000  0.58316
loop_
