data_ftg_P63/mmc  hall_number: 488, V_con: 4, EC_con: 4
_audit_creation_date              2025-03-05
_audit_creation_method            'MOFbuilder_1.0'
_symmetry_space_group_name_H-M    'P1'
_symmetry_Int_Tables_number       1
_symmetry_cell_setting            triclinic
loop_
_symmetry_equiv_pos_as_xyz
  x,y,z
_cell_length_a                    73.6173
_cell_length_b                    73.6173
_cell_length_c                    22.8952
_cell_angle_alpha                 90.0
_cell_angle_beta                  90.0
_cell_angle_gamma                 120.0
loop_
_atom_site_label
_atom_site_type_symbol
_atom_site_fract_x
_atom_site_fract_y
_atom_site_fract_z
V1    V   0.07760  0.47088  0.03161
V2    V   0.07760  0.47088  0.46839
V3    V   0.07760  0.60672  0.03161
V4    V   0.07760  0.60672  0.46839
V5    V   0.39328  0.47088  0.03161
V6    V   0.39328  0.47088  0.46839
V7    V   0.39328  0.92240  0.03161
V8    V   0.39328  0.92240  0.46839
V9    V   0.47088  0.07760  0.53161
V10   V   0.47088  0.07760  0.96839
V11   V   0.47088  0.39328  0.53161
V12   V   0.47088  0.39328  0.96839
V13   V   0.52912  0.60672  0.03161
V14   V   0.52912  0.60672  0.46839
V15   V   0.52912  0.92240  0.03161
V16   V   0.52912  0.92240  0.46839
V17   V   0.60672  0.07760  0.53161
V18   V   0.60672  0.07760  0.96839
V19   V   0.60672  0.52912  0.53161
V20   V   0.60672  0.52912  0.96839
V21   V   0.92240  0.39328  0.53161
V22   V   0.92240  0.39328  0.96839
V23   V   0.92240  0.52912  0.53161
V24   V   0.92240  0.52912  0.96839
EC1    EC   0.19750  0.53083  0.75000
EC2    EC   0.19750  0.66667  0.75000
EC3    EC   0.33333  0.53083  0.75000
EC4    EC   0.33333  0.80250  0.75000
EC5    EC   0.46917  0.66667  0.75000
EC6    EC   0.46917  0.80250  0.75000
EC7    EC   0.53083  0.19750  0.25000
EC8    EC   0.53083  0.33333  0.25000
EC9    EC   0.66667  0.19750  0.25000
EC10   EC   0.66667  0.46917  0.25000
EC11   EC   0.80250  0.33333  0.25000
EC12   EC   0.80250  0.46917  0.25000
E1    E   0.00000  0.43208  0.00000
E2    E   0.00000  0.43208  0.50000
E3    E   0.00000  0.56792  0.00000
E4    E   0.00000  0.56792  0.50000
E5    E   0.07760  0.47088  0.25000
E6    E   0.07760  0.53880  0.03161
E7    E   0.07760  0.53880  0.46839
E8    E   0.07760  0.53880  0.03161
E9    E   0.07760  0.53880  0.46839
E10   E   0.07760  0.60672  0.25000
E11   E   0.13755  0.50086  0.60919
E12   E   0.13755  0.50086  0.89081
E13   E   0.13755  0.63669  0.60919
E14   E   0.13755  0.63669  0.89081
E15   E   0.19750  0.59875  0.75000
E16   E   0.26541  0.53083  0.75000
E17   E   0.26541  0.73458  0.75000
E18   E   0.26542  0.53083  0.75000
E19   E   0.26542  0.73459  0.75000
E20   E   0.36331  0.50086  0.60919
E21   E   0.36331  0.50086  0.89081
E22   E   0.36331  0.86245  0.60919
E23   E   0.36331  0.86245  0.89081
E24   E   0.39328  0.47088  0.25000
E25   E   0.39328  0.92240  0.25000
E26   E   0.40125  0.59875  0.75000
E27   E   0.40125  0.80250  0.75000
E28   E   0.43208  0.00000  0.00000
E29   E   0.43208  0.00000  0.50000
E30   E   0.43208  0.43208  0.00000
E31   E   0.43208  0.43208  0.50000
E32   E   0.46120  0.53880  0.03161
E33   E   0.46120  0.53880  0.46839
E34   E   0.46120  0.92240  0.03161
E35   E   0.46120  0.92240  0.46839
E36   E   0.46120  0.53880  0.03161
E37   E   0.46120  0.53880  0.46839
E38   E   0.46120  0.92240  0.03161
E39   E   0.46120  0.92240  0.46839
E40   E   0.46917  0.73458  0.75000
E41   E   0.46917  0.73459  0.75000
E42   E   0.47088  0.07760  0.75000
E43   E   0.47088  0.39328  0.75000
E44   E   0.49914  0.63669  0.60919
E45   E   0.49914  0.63669  0.89081
E46   E   0.49914  0.86245  0.60919
E47   E   0.49914  0.86245  0.89081
E48   E   0.50086  0.13755  0.10919
E49   E   0.50086  0.13755  0.39081
E50   E   0.50086  0.36331  0.10919
E51   E   0.50086  0.36331  0.39081
E52   E   0.52912  0.60672  0.25000
E53   E   0.52912  0.92240  0.25000
E54   E   0.53083  0.26541  0.25000
E55   E   0.53083  0.26542  0.25000
E56   E   0.53880  0.07760  0.53161
E57   E   0.53880  0.07760  0.96839
E58   E   0.53880  0.46120  0.53161
E59   E   0.53880  0.46120  0.96839
E60   E   0.53880  0.07760  0.53161
E61   E   0.53880  0.07760  0.96839
E62   E   0.53880  0.46120  0.53161
E63   E   0.53880  0.46120  0.96839
E64   E   0.56792  0.00000  0.00000
E65   E   0.56792  0.00000  0.50000
E66   E   0.56792  0.56792  0.00000
E67   E   0.56792  0.56792  0.50000
E68   E   0.59875  0.19750  0.25000
E69   E   0.59875  0.40125  0.25000
E70   E   0.60672  0.07760  0.75000
E71   E   0.60672  0.52912  0.75000
E72   E   0.63669  0.13755  0.10919
E73   E   0.63669  0.13755  0.39081
E74   E   0.63669  0.49914  0.10919
E75   E   0.63669  0.49914  0.39081
E76   E   0.73458  0.26541  0.25000
E77   E   0.73458  0.46917  0.25000
E78   E   0.73459  0.26542  0.25000
E79   E   0.73459  0.46917  0.25000
E80   E   0.80250  0.40125  0.25000
E81   E   0.86245  0.36331  0.10919
E82   E   0.86245  0.36331  0.39081
E83   E   0.86245  0.49914  0.10919
E84   E   0.86245  0.49914  0.39081
E85   E   0.92240  0.39328  0.75000
E86   E   0.92240  0.46120  0.53161
E87   E   0.92240  0.46120  0.96839
E88   E   0.92240  0.46120  0.53161
E89   E   0.92240  0.46120  0.96839
E90   E   0.92240  0.52912  0.75000
loop_
