data_fti_I4/mmm  hall_number: 424, V_con: 4, EC_con: 4
_audit_creation_date              2025-03-05
_audit_creation_method            'MOFbuilder_1.0'
_symmetry_space_group_name_H-M    'P1'
_symmetry_Int_Tables_number       1
_symmetry_cell_setting            triclinic
loop_
_symmetry_equiv_pos_as_xyz
  x,y,z
_cell_length_a                    70.9592
_cell_length_b                    70.9592
_cell_length_c                    29.9388
_cell_angle_alpha                 90.0
_cell_angle_beta                  90.0
_cell_angle_gamma                 90.0
loop_
_atom_site_label
_atom_site_type_symbol
_atom_site_fract_x
_atom_site_fract_y
_atom_site_fract_z
V1    V   0.15694  0.25659  0.33299
V2    V   0.15694  0.25659  0.66701
V3    V   0.15694  0.74341  0.33299
V4    V   0.15694  0.74341  0.66701
V5    V   0.24341  0.34306  0.16701
V6    V   0.24341  0.34306  0.83299
V7    V   0.24341  0.65694  0.16701
V8    V   0.24341  0.65694  0.83299
V9    V   0.25659  0.15694  0.33299
V10   V   0.25659  0.15694  0.66701
V11   V   0.25659  0.84306  0.33299
V12   V   0.25659  0.84306  0.66701
V13   V   0.34306  0.24341  0.16701
V14   V   0.34306  0.24341  0.83299
V15   V   0.34306  0.75659  0.16701
V16   V   0.34306  0.75659  0.83299
V17   V   0.65694  0.24341  0.16701
V18   V   0.65694  0.24341  0.83299
V19   V   0.65694  0.75659  0.16701
V20   V   0.65694  0.75659  0.83299
V21   V   0.74341  0.15694  0.33299
V22   V   0.74341  0.15694  0.66701
V23   V   0.74341  0.84306  0.33299
V24   V   0.74341  0.84306  0.66701
V25   V   0.75659  0.34306  0.16701
V26   V   0.75659  0.34306  0.83299
V27   V   0.75659  0.65694  0.16701
V28   V   0.75659  0.65694  0.83299
V29   V   0.84306  0.25659  0.33299
V30   V   0.84306  0.25659  0.66701
V31   V   0.84306  0.74341  0.33299
V32   V   0.84306  0.74341  0.66701
EC1    EC   0.07046  0.17011  0.16701
EC2    EC   0.07046  0.17011  0.83299
EC3    EC   0.07046  0.82989  0.16701
EC4    EC   0.07046  0.82989  0.83299
EC5    EC   0.17011  0.07046  0.16701
EC6    EC   0.17011  0.07046  0.83299
EC7    EC   0.17011  0.92954  0.16701
EC8    EC   0.17011  0.92954  0.83299
EC9    EC   0.32989  0.42954  0.33299
EC10   EC   0.32989  0.42954  0.66701
EC11   EC   0.32989  0.57046  0.33299
EC12   EC   0.32989  0.57046  0.66701
EC13   EC   0.42954  0.32989  0.33299
EC14   EC   0.42954  0.32989  0.66701
EC15   EC   0.42954  0.67011  0.33299
EC16   EC   0.42954  0.67011  0.66701
EC17   EC   0.57046  0.32989  0.33299
EC18   EC   0.57046  0.32989  0.66701
EC19   EC   0.57046  0.67011  0.33299
EC20   EC   0.57046  0.67011  0.66701
EC21   EC   0.67011  0.42954  0.33299
EC22   EC   0.67011  0.42954  0.66701
EC23   EC   0.67011  0.57046  0.33299
EC24   EC   0.67011  0.57046  0.66701
EC25   EC   0.82989  0.07046  0.16701
EC26   EC   0.82989  0.07046  0.83299
EC27   EC   0.82989  0.92954  0.16701
EC28   EC   0.82989  0.92954  0.83299
EC29   EC   0.92954  0.17011  0.16701
EC30   EC   0.92954  0.17011  0.83299
EC31   EC   0.92954  0.82989  0.16701
EC32   EC   0.92954  0.82989  0.83299
E1    E   0.00000  0.17011  0.16701
E2    E   0.00000  0.17011  0.83299
E3    E   0.00000  0.82989  0.16701
E4    E   0.00000  0.82989  0.83299
E5    E   0.07046  0.17011  0.00000
E6    E   0.07046  0.82989  0.00000
E7    E   0.11370  0.21335  0.25000
E8    E   0.11370  0.21335  0.75000
E9    E   0.11370  0.78665  0.25000
E10   E   0.11370  0.78665  0.75000
E11   E   0.12029  0.12029  0.16701
E12   E   0.12029  0.12029  0.83299
E13   E   0.12029  0.87971  0.16701
E14   E   0.12029  0.87971  0.83299
E15   E   0.15694  0.25659  0.50000
E16   E   0.15694  0.74341  0.50000
E17   E   0.17011  0.00000  0.16701
E18   E   0.17011  0.00000  0.83299
E19   E   0.17011  0.07046  0.00000
E20   E   0.17011  0.92954  0.00000
E21   E   0.20018  0.29982  0.25000
E22   E   0.20018  0.29982  0.75000
E23   E   0.20018  0.70018  0.25000
E24   E   0.20018  0.70018  0.75000
E25   E   0.20018  0.29982  0.25000
E26   E   0.20018  0.29982  0.75000
E27   E   0.20018  0.70018  0.25000
E28   E   0.20018  0.70018  0.75000
E29   E   0.20676  0.20676  0.33299
E30   E   0.20676  0.20676  0.66701
E31   E   0.20676  0.79324  0.33299
E32   E   0.20676  0.79324  0.66701
E33   E   0.21335  0.11370  0.25000
E34   E   0.21335  0.11370  0.75000
E35   E   0.21335  0.88630  0.25000
E36   E   0.21335  0.88630  0.75000
E37   E   0.24341  0.34306  0.00000
E38   E   0.24341  0.65694  0.00000
E39   E   0.25659  0.15694  0.50000
E40   E   0.25659  0.84306  0.50000
E41   E   0.28665  0.38630  0.25000
E42   E   0.28665  0.38630  0.75000
E43   E   0.28665  0.61370  0.25000
E44   E   0.28665  0.61370  0.75000
E45   E   0.29324  0.29324  0.16701
E46   E   0.29324  0.29324  0.83299
E47   E   0.29324  0.70676  0.16701
E48   E   0.29324  0.70676  0.83299
E49   E   0.29982  0.20018  0.25000
E50   E   0.29982  0.20018  0.75000
E51   E   0.29982  0.20018  0.25000
E52   E   0.29982  0.20018  0.75000
E53   E   0.29982  0.79982  0.25000
E54   E   0.29982  0.79982  0.75000
E55   E   0.32989  0.42954  0.50000
E56   E   0.32989  0.50000  0.33299
E57   E   0.32989  0.50000  0.66701
E58   E   0.32989  0.57046  0.50000
E59   E   0.34306  0.24341  0.00000
E60   E   0.34306  0.75659  0.00000
E61   E   0.37971  0.37971  0.33299
E62   E   0.37971  0.37971  0.66701
E63   E   0.37971  0.62029  0.33299
E64   E   0.37971  0.62029  0.66701
E65   E   0.38630  0.28665  0.25000
E66   E   0.38630  0.28665  0.75000
E67   E   0.38630  0.71335  0.25000
E68   E   0.38630  0.71335  0.75000
E69   E   0.42954  0.32989  0.50000
E70   E   0.42954  0.67011  0.50000
E71   E   0.50000  0.32989  0.33299
E72   E   0.50000  0.32989  0.66701
E73   E   0.50000  0.67011  0.33299
E74   E   0.50000  0.67011  0.66701
E75   E   0.57046  0.32989  0.50000
E76   E   0.57046  0.67011  0.50000
E77   E   0.61370  0.28665  0.25000
E78   E   0.61370  0.28665  0.75000
E79   E   0.61370  0.71335  0.25000
E80   E   0.61370  0.71335  0.75000
E81   E   0.62029  0.37971  0.33299
E82   E   0.62029  0.37971  0.66701
E83   E   0.62029  0.62029  0.33299
E84   E   0.62029  0.62029  0.66701
E85   E   0.65694  0.24341  0.00000
E86   E   0.65694  0.75659  0.00000
E87   E   0.67011  0.42954  0.50000
E88   E   0.67011  0.50000  0.33299
E89   E   0.67011  0.50000  0.66701
E90   E   0.67011  0.57046  0.50000
E91   E   0.70018  0.20018  0.25000
E92   E   0.70018  0.20018  0.75000
E93   E   0.70018  0.20018  0.25000
E94   E   0.70018  0.20018  0.75000
E95   E   0.70018  0.79982  0.25000
E96   E   0.70018  0.79982  0.75000
E97   E   0.70676  0.29324  0.16701
E98   E   0.70676  0.29324  0.83299
E99   E   0.70676  0.70676  0.16701
E100  E   0.70676  0.70676  0.83299
E101  E   0.71335  0.38630  0.25000
E102  E   0.71335  0.38630  0.75000
E103  E   0.71335  0.61370  0.25000
E104  E   0.71335  0.61370  0.75000
E105  E   0.74341  0.15694  0.50000
E106  E   0.74341  0.84306  0.50000
E107  E   0.75659  0.34306  0.00000
E108  E   0.75659  0.65694  0.00000
E109  E   0.78665  0.11370  0.25000
E110  E   0.78665  0.11370  0.75000
E111  E   0.78665  0.88630  0.25000
E112  E   0.78665  0.88630  0.75000
E113  E   0.79324  0.20676  0.33299
E114  E   0.79324  0.20676  0.66701
E115  E   0.79324  0.79324  0.33299
E116  E   0.79324  0.79324  0.66701
E117  E   0.79982  0.29982  0.25000
E118  E   0.79982  0.29982  0.75000
E119  E   0.79982  0.70018  0.25000
E120  E   0.79982  0.70018  0.75000
E121  E   0.82989  0.00000  0.16701
E122  E   0.82989  0.00000  0.83299
E123  E   0.82989  0.07046  0.00000
E124  E   0.82989  0.92954  0.00000
E125  E   0.84306  0.25659  0.50000
E126  E   0.84306  0.74341  0.50000
E127  E   0.87971  0.12029  0.16701
E128  E   0.87971  0.12029  0.83299
E129  E   0.87971  0.87971  0.16701
E130  E   0.87971  0.87971  0.83299
E131  E   0.88630  0.21335  0.25000
E132  E   0.88630  0.21335  0.75000
E133  E   0.88630  0.78665  0.25000
E134  E   0.88630  0.78665  0.75000
E135  E   0.92954  0.17011  0.00000
E136  E   0.92954  0.82989  0.00000
loop_
