data_ftq_Fm-3m  hall_number: 523, V_con: 4, EC_con: 4
_audit_creation_date              2025-03-05
_audit_creation_method            'MOFbuilder_1.0'
_symmetry_space_group_name_H-M    'P1'
_symmetry_Int_Tables_number       1
_symmetry_cell_setting            triclinic
loop_
_symmetry_equiv_pos_as_xyz
  x,y,z
_cell_length_a                    10.48527
_cell_length_b                    10.48527
_cell_length_c                    10.48527
_cell_angle_alpha                 90.0
_cell_angle_beta                  90.0
_cell_angle_gamma                 90.0
loop_
_atom_site_label
_atom_site_type_symbol
_atom_site_fract_x
_atom_site_fract_y
_atom_site_fract_z
V1    V   0.04769  0.18256  0.25000
V2    V   0.04769  0.18256  0.75000
V3    V   0.04769  0.25000  0.18256
V4    V   0.04769  0.25000  0.31744
V5    V   0.04769  0.25000  0.68256
V6    V   0.04769  0.25000  0.81744
V7    V   0.04769  0.31744  0.25000
V8    V   0.04769  0.31744  0.75000
V9    V   0.04769  0.68256  0.25000
V10   V   0.04769  0.68256  0.75000
V11   V   0.04769  0.75000  0.18256
V12   V   0.04769  0.75000  0.31744
V13   V   0.04769  0.75000  0.68256
V14   V   0.04769  0.75000  0.81744
V15   V   0.04769  0.81744  0.25000
V16   V   0.04769  0.81744  0.75000
V17   V   0.18256  0.04769  0.25000
V18   V   0.18256  0.04769  0.75000
V19   V   0.18256  0.25000  0.04769
V20   V   0.18256  0.25000  0.45231
V21   V   0.18256  0.25000  0.54769
V22   V   0.18256  0.25000  0.95231
V23   V   0.18256  0.45231  0.25000
V24   V   0.18256  0.45231  0.75000
V25   V   0.18256  0.54769  0.25000
V26   V   0.18256  0.54769  0.75000
V27   V   0.18256  0.75000  0.04769
V28   V   0.18256  0.75000  0.45231
V29   V   0.18256  0.75000  0.54769
V30   V   0.18256  0.75000  0.95231
V31   V   0.18256  0.95231  0.25000
V32   V   0.18256  0.95231  0.75000
V33   V   0.25000  0.04769  0.18256
V34   V   0.25000  0.04769  0.31744
V35   V   0.25000  0.04769  0.68256
V36   V   0.25000  0.04769  0.81744
V37   V   0.25000  0.18256  0.04769
V38   V   0.25000  0.18256  0.45231
V39   V   0.25000  0.18256  0.54769
V40   V   0.25000  0.18256  0.95231
V41   V   0.25000  0.31744  0.04769
V42   V   0.25000  0.31744  0.45231
V43   V   0.25000  0.31744  0.54769
V44   V   0.25000  0.31744  0.95231
V45   V   0.25000  0.45231  0.18256
V46   V   0.25000  0.45231  0.31744
V47   V   0.25000  0.45231  0.68256
V48   V   0.25000  0.45231  0.81744
V49   V   0.25000  0.54769  0.18256
V50   V   0.25000  0.54769  0.31744
V51   V   0.25000  0.54769  0.68256
V52   V   0.25000  0.54769  0.81744
V53   V   0.25000  0.68256  0.04769
V54   V   0.25000  0.68256  0.45231
V55   V   0.25000  0.68256  0.54769
V56   V   0.25000  0.68256  0.95231
V57   V   0.25000  0.81744  0.04769
V58   V   0.25000  0.81744  0.45231
V59   V   0.25000  0.81744  0.54769
V60   V   0.25000  0.81744  0.95231
V61   V   0.25000  0.95231  0.18256
V62   V   0.25000  0.95231  0.31744
V63   V   0.25000  0.95231  0.68256
V64   V   0.25000  0.95231  0.81744
V65   V   0.31744  0.04769  0.25000
V66   V   0.31744  0.04769  0.75000
V67   V   0.31744  0.25000  0.04769
V68   V   0.31744  0.25000  0.45231
V69   V   0.31744  0.25000  0.54769
V70   V   0.31744  0.25000  0.95231
V71   V   0.31744  0.45231  0.25000
V72   V   0.31744  0.45231  0.75000
V73   V   0.31744  0.54769  0.25000
V74   V   0.31744  0.54769  0.75000
V75   V   0.31744  0.75000  0.04769
V76   V   0.31744  0.75000  0.45231
V77   V   0.31744  0.75000  0.54769
V78   V   0.31744  0.75000  0.95231
V79   V   0.31744  0.95231  0.25000
V80   V   0.31744  0.95231  0.75000
V81   V   0.45231  0.18256  0.25000
V82   V   0.45231  0.18256  0.75000
V83   V   0.45231  0.25000  0.18256
V84   V   0.45231  0.25000  0.31744
V85   V   0.45231  0.25000  0.68256
V86   V   0.45231  0.25000  0.81744
V87   V   0.45231  0.31744  0.25000
V88   V   0.45231  0.31744  0.75000
V89   V   0.45231  0.68256  0.25000
V90   V   0.45231  0.68256  0.75000
V91   V   0.45231  0.75000  0.18256
V92   V   0.45231  0.75000  0.31744
V93   V   0.45231  0.75000  0.68256
V94   V   0.45231  0.75000  0.81744
V95   V   0.45231  0.81744  0.25000
V96   V   0.45231  0.81744  0.75000
V97   V   0.54769  0.18256  0.25000
V98   V   0.54769  0.18256  0.75000
V99   V   0.54769  0.25000  0.18256
V100  V   0.54769  0.25000  0.31744
V101  V   0.54769  0.25000  0.68256
V102  V   0.54769  0.25000  0.81744
V103  V   0.54769  0.31744  0.25000
V104  V   0.54769  0.31744  0.75000
V105  V   0.54769  0.68256  0.25000
V106  V   0.54769  0.68256  0.75000
V107  V   0.54769  0.75000  0.18256
V108  V   0.54769  0.75000  0.31744
V109  V   0.54769  0.75000  0.68256
V110  V   0.54769  0.75000  0.81744
V111  V   0.54769  0.81744  0.25000
V112  V   0.54769  0.81744  0.75000
V113  V   0.68256  0.04769  0.25000
V114  V   0.68256  0.04769  0.75000
V115  V   0.68256  0.25000  0.04769
V116  V   0.68256  0.25000  0.45231
V117  V   0.68256  0.25000  0.54769
V118  V   0.68256  0.25000  0.95231
V119  V   0.68256  0.45231  0.25000
V120  V   0.68256  0.45231  0.75000
V121  V   0.68256  0.54769  0.25000
V122  V   0.68256  0.54769  0.75000
V123  V   0.68256  0.75000  0.04769
V124  V   0.68256  0.75000  0.45231
V125  V   0.68256  0.75000  0.54769
V126  V   0.68256  0.75000  0.95231
V127  V   0.68256  0.95231  0.25000
V128  V   0.68256  0.95231  0.75000
V129  V   0.75000  0.04769  0.18256
V130  V   0.75000  0.04769  0.31744
V131  V   0.75000  0.04769  0.68256
V132  V   0.75000  0.04769  0.81744
V133  V   0.75000  0.18256  0.04769
V134  V   0.75000  0.18256  0.45231
V135  V   0.75000  0.18256  0.54769
V136  V   0.75000  0.18256  0.95231
V137  V   0.75000  0.31744  0.04769
V138  V   0.75000  0.31744  0.45231
V139  V   0.75000  0.31744  0.54769
V140  V   0.75000  0.31744  0.95231
V141  V   0.75000  0.45231  0.18256
V142  V   0.75000  0.45231  0.31744
V143  V   0.75000  0.45231  0.68256
V144  V   0.75000  0.45231  0.81744
V145  V   0.75000  0.54769  0.18256
V146  V   0.75000  0.54769  0.31744
V147  V   0.75000  0.54769  0.68256
V148  V   0.75000  0.54769  0.81744
V149  V   0.75000  0.68256  0.04769
V150  V   0.75000  0.68256  0.45231
V151  V   0.75000  0.68256  0.54769
V152  V   0.75000  0.68256  0.95231
V153  V   0.75000  0.81744  0.04769
V154  V   0.75000  0.81744  0.45231
V155  V   0.75000  0.81744  0.54769
V156  V   0.75000  0.81744  0.95231
V157  V   0.75000  0.95231  0.18256
V158  V   0.75000  0.95231  0.31744
V159  V   0.75000  0.95231  0.68256
V160  V   0.75000  0.95231  0.81744
V161  V   0.81744  0.04769  0.25000
V162  V   0.81744  0.04769  0.75000
V163  V   0.81744  0.25000  0.04769
V164  V   0.81744  0.25000  0.45231
V165  V   0.81744  0.25000  0.54769
V166  V   0.81744  0.25000  0.95231
V167  V   0.81744  0.45231  0.25000
V168  V   0.81744  0.45231  0.75000
V169  V   0.81744  0.54769  0.25000
V170  V   0.81744  0.54769  0.75000
V171  V   0.81744  0.75000  0.04769
V172  V   0.81744  0.75000  0.45231
V173  V   0.81744  0.75000  0.54769
V174  V   0.81744  0.75000  0.95231
V175  V   0.81744  0.95231  0.25000
V176  V   0.81744  0.95231  0.75000
V177  V   0.95231  0.18256  0.25000
V178  V   0.95231  0.18256  0.75000
V179  V   0.95231  0.25000  0.18256
V180  V   0.95231  0.25000  0.31744
V181  V   0.95231  0.25000  0.68256
V182  V   0.95231  0.25000  0.81744
V183  V   0.95231  0.31744  0.25000
V184  V   0.95231  0.31744  0.75000
V185  V   0.95231  0.68256  0.25000
V186  V   0.95231  0.68256  0.75000
V187  V   0.95231  0.75000  0.18256
V188  V   0.95231  0.75000  0.31744
V189  V   0.95231  0.75000  0.68256
V190  V   0.95231  0.75000  0.81744
V191  V   0.95231  0.81744  0.25000
V192  V   0.95231  0.81744  0.75000
EC1    EC   0.04769  0.11512  0.18256
EC2    EC   0.04769  0.11512  0.81744
EC3    EC   0.04769  0.18256  0.11512
EC4    EC   0.04769  0.18256  0.88488
EC5    EC   0.04769  0.31744  0.38488
EC6    EC   0.04769  0.31744  0.61512
EC7    EC   0.04769  0.38488  0.31744
EC8    EC   0.04769  0.38488  0.68256
EC9    EC   0.04769  0.61512  0.31744
EC10   EC   0.04769  0.61512  0.68256
EC11   EC   0.04769  0.68256  0.38488
EC12   EC   0.04769  0.68256  0.61512
EC13   EC   0.04769  0.81744  0.11512
EC14   EC   0.04769  0.81744  0.88488
EC15   EC   0.04769  0.88488  0.18256
EC16   EC   0.04769  0.88488  0.81744
EC17   EC   0.11512  0.04769  0.18256
EC18   EC   0.11512  0.04769  0.81744
EC19   EC   0.11512  0.18256  0.04769
EC20   EC   0.11512  0.18256  0.95231
EC21   EC   0.11512  0.31744  0.45231
EC22   EC   0.11512  0.31744  0.54769
EC23   EC   0.11512  0.45231  0.31744
EC24   EC   0.11512  0.45231  0.68256
EC25   EC   0.11512  0.54769  0.31744
EC26   EC   0.11512  0.54769  0.68256
EC27   EC   0.11512  0.68256  0.45231
EC28   EC   0.11512  0.68256  0.54769
EC29   EC   0.11512  0.81744  0.04769
EC30   EC   0.11512  0.81744  0.95231
EC31   EC   0.11512  0.95231  0.18256
EC32   EC   0.11512  0.95231  0.81744
EC33   EC   0.18256  0.04769  0.11512
EC34   EC   0.18256  0.04769  0.88488
EC35   EC   0.18256  0.11512  0.04769
EC36   EC   0.18256  0.11512  0.95231
EC37   EC   0.18256  0.38488  0.45231
EC38   EC   0.18256  0.38488  0.54769
EC39   EC   0.18256  0.45231  0.38488
EC40   EC   0.18256  0.45231  0.61512
EC41   EC   0.18256  0.54769  0.38488
EC42   EC   0.18256  0.54769  0.61512
EC43   EC   0.18256  0.61512  0.45231
EC44   EC   0.18256  0.61512  0.54769
EC45   EC   0.18256  0.88488  0.04769
EC46   EC   0.18256  0.88488  0.95231
EC47   EC   0.18256  0.95231  0.11512
EC48   EC   0.18256  0.95231  0.88488
EC49   EC   0.31744  0.04769  0.38488
EC50   EC   0.31744  0.04769  0.61512
EC51   EC   0.31744  0.11512  0.45231
EC52   EC   0.31744  0.11512  0.54769
EC53   EC   0.31744  0.38488  0.04769
EC54   EC   0.31744  0.38488  0.95231
EC55   EC   0.31744  0.45231  0.11512
EC56   EC   0.31744  0.45231  0.88488
EC57   EC   0.31744  0.54769  0.11512
EC58   EC   0.31744  0.54769  0.88488
EC59   EC   0.31744  0.61512  0.04769
EC60   EC   0.31744  0.61512  0.95231
EC61   EC   0.31744  0.88488  0.45231
EC62   EC   0.31744  0.88488  0.54769
EC63   EC   0.31744  0.95231  0.38488
EC64   EC   0.31744  0.95231  0.61512
EC65   EC   0.38488  0.04769  0.31744
EC66   EC   0.38488  0.04769  0.68256
EC67   EC   0.38488  0.18256  0.45231
EC68   EC   0.38488  0.18256  0.54769
EC69   EC   0.38488  0.31744  0.04769
EC70   EC   0.38488  0.31744  0.95231
EC71   EC   0.38488  0.45231  0.18256
EC72   EC   0.38488  0.45231  0.81744
EC73   EC   0.38488  0.54769  0.18256
EC74   EC   0.38488  0.54769  0.81744
EC75   EC   0.38488  0.68256  0.04769
EC76   EC   0.38488  0.68256  0.95231
EC77   EC   0.38488  0.81744  0.45231
EC78   EC   0.38488  0.81744  0.54769
EC79   EC   0.38488  0.95231  0.31744
EC80   EC   0.38488  0.95231  0.68256
EC81   EC   0.45231  0.11512  0.31744
EC82   EC   0.45231  0.11512  0.68256
EC83   EC   0.45231  0.18256  0.38488
EC84   EC   0.45231  0.18256  0.61512
EC85   EC   0.45231  0.31744  0.11512
EC86   EC   0.45231  0.31744  0.88488
EC87   EC   0.45231  0.38488  0.18256
EC88   EC   0.45231  0.38488  0.81744
EC89   EC   0.45231  0.61512  0.18256
EC90   EC   0.45231  0.61512  0.81744
EC91   EC   0.45231  0.68256  0.11512
EC92   EC   0.45231  0.68256  0.88488
EC93   EC   0.45231  0.81744  0.38488
EC94   EC   0.45231  0.81744  0.61512
EC95   EC   0.45231  0.88488  0.31744
EC96   EC   0.45231  0.88488  0.68256
EC97   EC   0.54769  0.11512  0.31744
EC98   EC   0.54769  0.11512  0.68256
EC99   EC   0.54769  0.18256  0.38488
EC100  EC   0.54769  0.18256  0.61512
EC101  EC   0.54769  0.31744  0.11512
EC102  EC   0.54769  0.31744  0.88488
EC103  EC   0.54769  0.38488  0.18256
EC104  EC   0.54769  0.38488  0.81744
EC105  EC   0.54769  0.61512  0.18256
EC106  EC   0.54769  0.61512  0.81744
EC107  EC   0.54769  0.68256  0.11512
EC108  EC   0.54769  0.68256  0.88488
EC109  EC   0.54769  0.81744  0.38488
EC110  EC   0.54769  0.81744  0.61512
EC111  EC   0.54769  0.88488  0.31744
EC112  EC   0.54769  0.88488  0.68256
EC113  EC   0.61512  0.04769  0.31744
EC114  EC   0.61512  0.04769  0.68256
EC115  EC   0.61512  0.18256  0.45231
EC116  EC   0.61512  0.18256  0.54769
EC117  EC   0.61512  0.31744  0.04769
EC118  EC   0.61512  0.31744  0.95231
EC119  EC   0.61512  0.45231  0.18256
EC120  EC   0.61512  0.45231  0.81744
EC121  EC   0.61512  0.54769  0.18256
EC122  EC   0.61512  0.54769  0.81744
EC123  EC   0.61512  0.68256  0.04769
EC124  EC   0.61512  0.68256  0.95231
EC125  EC   0.61512  0.81744  0.45231
EC126  EC   0.61512  0.81744  0.54769
EC127  EC   0.61512  0.95231  0.31744
EC128  EC   0.61512  0.95231  0.68256
EC129  EC   0.68256  0.04769  0.38488
EC130  EC   0.68256  0.04769  0.61512
EC131  EC   0.68256  0.11512  0.45231
EC132  EC   0.68256  0.11512  0.54769
EC133  EC   0.68256  0.38488  0.04769
EC134  EC   0.68256  0.38488  0.95231
EC135  EC   0.68256  0.45231  0.11512
EC136  EC   0.68256  0.45231  0.88488
EC137  EC   0.68256  0.54769  0.11512
EC138  EC   0.68256  0.54769  0.88488
EC139  EC   0.68256  0.61512  0.04769
EC140  EC   0.68256  0.61512  0.95231
EC141  EC   0.68256  0.88488  0.45231
EC142  EC   0.68256  0.88488  0.54769
EC143  EC   0.68256  0.95231  0.38488
EC144  EC   0.68256  0.95231  0.61512
EC145  EC   0.81744  0.04769  0.11512
EC146  EC   0.81744  0.04769  0.88488
EC147  EC   0.81744  0.11512  0.04769
EC148  EC   0.81744  0.11512  0.95231
EC149  EC   0.81744  0.38488  0.45231
EC150  EC   0.81744  0.38488  0.54769
EC151  EC   0.81744  0.45231  0.38488
EC152  EC   0.81744  0.45231  0.61512
EC153  EC   0.81744  0.54769  0.38488
EC154  EC   0.81744  0.54769  0.61512
EC155  EC   0.81744  0.61512  0.45231
EC156  EC   0.81744  0.61512  0.54769
EC157  EC   0.81744  0.88488  0.04769
EC158  EC   0.81744  0.88488  0.95231
EC159  EC   0.81744  0.95231  0.11512
EC160  EC   0.81744  0.95231  0.88488
EC161  EC   0.88488  0.04769  0.18256
EC162  EC   0.88488  0.04769  0.81744
EC163  EC   0.88488  0.18256  0.04769
EC164  EC   0.88488  0.18256  0.95231
EC165  EC   0.88488  0.31744  0.45231
EC166  EC   0.88488  0.31744  0.54769
EC167  EC   0.88488  0.45231  0.31744
EC168  EC   0.88488  0.45231  0.68256
EC169  EC   0.88488  0.54769  0.31744
EC170  EC   0.88488  0.54769  0.68256
EC171  EC   0.88488  0.68256  0.45231
EC172  EC   0.88488  0.68256  0.54769
EC173  EC   0.88488  0.81744  0.04769
EC174  EC   0.88488  0.81744  0.95231
EC175  EC   0.88488  0.95231  0.18256
EC176  EC   0.88488  0.95231  0.81744
EC177  EC   0.95231  0.11512  0.18256
EC178  EC   0.95231  0.11512  0.81744
EC179  EC   0.95231  0.18256  0.11512
EC180  EC   0.95231  0.18256  0.88488
EC181  EC   0.95231  0.31744  0.38488
EC182  EC   0.95231  0.31744  0.61512
EC183  EC   0.95231  0.38488  0.31744
EC184  EC   0.95231  0.38488  0.68256
EC185  EC   0.95231  0.61512  0.31744
EC186  EC   0.95231  0.61512  0.68256
EC187  EC   0.95231  0.68256  0.38488
EC188  EC   0.95231  0.68256  0.61512
EC189  EC   0.95231  0.81744  0.11512
EC190  EC   0.95231  0.81744  0.88488
EC191  EC   0.95231  0.88488  0.18256
EC192  EC   0.95231  0.88488  0.81744
E1    E   0.00000  0.11512  0.18256
E2    E   0.00000  0.11512  0.81744
E3    E   0.00000  0.18256  0.11512
E4    E   0.00000  0.18256  0.25000
E5    E   0.00000  0.18256  0.75000
E6    E   0.00000  0.18256  0.88488
E7    E   0.00000  0.25000  0.18256
E8    E   0.00000  0.25000  0.31744
E9    E   0.00000  0.25000  0.68256
E10   E   0.00000  0.25000  0.81744
E11   E   0.00000  0.31744  0.25000
E12   E   0.00000  0.31744  0.38488
E13   E   0.00000  0.31744  0.61512
E14   E   0.00000  0.31744  0.75000
E15   E   0.00000  0.38488  0.31744
E16   E   0.00000  0.38488  0.68256
E17   E   0.00000  0.61512  0.31744
E18   E   0.00000  0.61512  0.68256
E19   E   0.00000  0.68256  0.25000
E20   E   0.00000  0.68256  0.38488
E21   E   0.00000  0.68256  0.61512
E22   E   0.00000  0.68256  0.75000
E23   E   0.00000  0.75000  0.18256
E24   E   0.00000  0.75000  0.31744
E25   E   0.00000  0.75000  0.68256
E26   E   0.00000  0.75000  0.81744
E27   E   0.00000  0.81744  0.11512
E28   E   0.00000  0.81744  0.25000
E29   E   0.00000  0.81744  0.75000
E30   E   0.00000  0.81744  0.88488
E31   E   0.00000  0.88488  0.18256
E32   E   0.00000  0.88488  0.81744
E33   E   0.04769  0.14884  0.14884
E34   E   0.04769  0.14884  0.21628
E35   E   0.04769  0.14884  0.78372
E36   E   0.04769  0.14884  0.85116
E37   E   0.04769  0.21628  0.28372
E38   E   0.04769  0.21628  0.71628
E39   E   0.04769  0.21628  0.14884
E40   E   0.04769  0.21628  0.21628
E41   E   0.04769  0.21628  0.28372
E42   E   0.04769  0.21628  0.71628
E43   E   0.04769  0.21628  0.78372
E44   E   0.04769  0.21628  0.85116
E45   E   0.04769  0.28372  0.21628
E46   E   0.04769  0.28372  0.28372
E47   E   0.04769  0.28372  0.35116
E48   E   0.04769  0.28372  0.64884
E49   E   0.04769  0.28372  0.71628
E50   E   0.04769  0.28372  0.78372
E51   E   0.04769  0.28372  0.21628
E52   E   0.04769  0.28372  0.78372
E53   E   0.04769  0.35116  0.28372
E54   E   0.04769  0.35116  0.35116
E55   E   0.04769  0.35116  0.64884
E56   E   0.04769  0.35116  0.71628
E57   E   0.04769  0.64884  0.28372
E58   E   0.04769  0.64884  0.35116
E59   E   0.04769  0.64884  0.64884
E60   E   0.04769  0.64884  0.71628
E61   E   0.04769  0.71628  0.21628
E62   E   0.04769  0.71628  0.21628
E63   E   0.04769  0.71628  0.28372
E64   E   0.04769  0.71628  0.35116
E65   E   0.04769  0.71628  0.64884
E66   E   0.04769  0.71628  0.71628
E67   E   0.04769  0.71628  0.78372
E68   E   0.04769  0.78372  0.14884
E69   E   0.04769  0.78372  0.21628
E70   E   0.04769  0.78372  0.28372
E71   E   0.04769  0.78372  0.28372
E72   E   0.04769  0.78372  0.71628
E73   E   0.04769  0.78372  0.78372
E74   E   0.04769  0.78372  0.85116
E75   E   0.04769  0.85116  0.14884
E76   E   0.04769  0.85116  0.21628
E77   E   0.04769  0.85116  0.78372
E78   E   0.04769  0.85116  0.85116
E79   E   0.08140  0.08140  0.18256
E80   E   0.08140  0.08140  0.81744
E81   E   0.08140  0.18256  0.08140
E82   E   0.08140  0.18256  0.91860
E83   E   0.08140  0.31744  0.41860
E84   E   0.08140  0.31744  0.58140
E85   E   0.08140  0.41860  0.31744
E86   E   0.08140  0.41860  0.68256
E87   E   0.08140  0.58140  0.31744
E88   E   0.08140  0.58140  0.68256
E89   E   0.08140  0.68256  0.41860
E90   E   0.08140  0.68256  0.58140
E91   E   0.08140  0.81744  0.08140
E92   E   0.08140  0.81744  0.91860
E93   E   0.08140  0.91860  0.18256
E94   E   0.08140  0.91860  0.81744
E95   E   0.11512  0.00000  0.18256
E96   E   0.11512  0.00000  0.81744
E97   E   0.11512  0.18256  0.00000
E98   E   0.11512  0.31744  0.50000
E99   E   0.11512  0.50000  0.31744
E100  E   0.11512  0.50000  0.68256
E101  E   0.11512  0.68256  0.50000
E102  E   0.11512  0.81744  0.00000
E103  E   0.14884  0.04769  0.14884
E104  E   0.14884  0.04769  0.21628
E105  E   0.14884  0.04769  0.78372
E106  E   0.14884  0.04769  0.85116
E107  E   0.14884  0.14884  0.04769
E108  E   0.14884  0.14884  0.95231
E109  E   0.14884  0.21628  0.04769
E110  E   0.14884  0.21628  0.95231
E111  E   0.14884  0.28372  0.45231
E112  E   0.14884  0.28372  0.54769
E113  E   0.14884  0.35116  0.45231
E114  E   0.14884  0.35116  0.54769
E115  E   0.14884  0.45231  0.28372
E116  E   0.14884  0.45231  0.35116
E117  E   0.14884  0.45231  0.64884
E118  E   0.14884  0.45231  0.71628
E119  E   0.14884  0.54769  0.28372
E120  E   0.14884  0.54769  0.35116
E121  E   0.14884  0.54769  0.64884
E122  E   0.14884  0.54769  0.71628
E123  E   0.14884  0.64884  0.45231
E124  E   0.14884  0.64884  0.54769
E125  E   0.14884  0.71628  0.45231
E126  E   0.14884  0.71628  0.54769
E127  E   0.14884  0.78372  0.04769
E128  E   0.14884  0.78372  0.95231
E129  E   0.14884  0.85116  0.04769
E130  E   0.14884  0.85116  0.95231
E131  E   0.14884  0.95231  0.14884
E132  E   0.14884  0.95231  0.21628
E133  E   0.14884  0.95231  0.78372
E134  E   0.14884  0.95231  0.85116
E135  E   0.18256  0.00000  0.11512
E136  E   0.18256  0.00000  0.25000
E137  E   0.18256  0.00000  0.75000
E138  E   0.18256  0.00000  0.88488
E139  E   0.18256  0.08140  0.08140
E140  E   0.18256  0.08140  0.91860
E141  E   0.18256  0.11512  0.00000
E142  E   0.18256  0.25000  0.00000
E143  E   0.18256  0.25000  0.50000
E144  E   0.18256  0.38488  0.50000
E145  E   0.18256  0.41860  0.41860
E146  E   0.18256  0.41860  0.58140
E147  E   0.18256  0.50000  0.25000
E148  E   0.18256  0.50000  0.38488
E149  E   0.18256  0.50000  0.61512
E150  E   0.18256  0.50000  0.75000
E151  E   0.18256  0.58140  0.41860
E152  E   0.18256  0.58140  0.58140
E153  E   0.18256  0.61512  0.50000
E154  E   0.18256  0.75000  0.00000
E155  E   0.18256  0.75000  0.50000
E156  E   0.18256  0.88488  0.00000
E157  E   0.18256  0.91860  0.08140
E158  E   0.18256  0.91860  0.91860
E159  E   0.21628  0.04769  0.28372
E160  E   0.21628  0.04769  0.71628
E161  E   0.21628  0.21628  0.45231
E162  E   0.21628  0.21628  0.54769
E163  E   0.21628  0.28372  0.04769
E164  E   0.21628  0.28372  0.95231
E165  E   0.21628  0.45231  0.21628
E166  E   0.21628  0.45231  0.78372
E167  E   0.21628  0.54769  0.21628
E168  E   0.21628  0.54769  0.78372
E169  E   0.21628  0.71628  0.04769
E170  E   0.21628  0.71628  0.95231
E171  E   0.21628  0.78372  0.45231
E172  E   0.21628  0.78372  0.54769
E173  E   0.21628  0.95231  0.28372
E174  E   0.21628  0.95231  0.71628
E175  E   0.21628  0.04769  0.14884
E176  E   0.21628  0.04769  0.21628
E177  E   0.21628  0.04769  0.28372
E178  E   0.21628  0.04769  0.71628
E179  E   0.21628  0.04769  0.78372
E180  E   0.21628  0.04769  0.85116
E181  E   0.21628  0.14884  0.04769
E182  E   0.21628  0.14884  0.95231
E183  E   0.21628  0.21628  0.45231
E184  E   0.21628  0.21628  0.54769
E185  E   0.21628  0.21628  0.04769
E186  E   0.21628  0.21628  0.95231
E187  E   0.21628  0.28372  0.45231
E188  E   0.21628  0.28372  0.54769
E189  E   0.21628  0.28372  0.04769
E190  E   0.21628  0.28372  0.95231
E191  E   0.21628  0.35116  0.45231
E192  E   0.21628  0.35116  0.54769
E193  E   0.21628  0.45231  0.21628
E194  E   0.21628  0.45231  0.28372
E195  E   0.21628  0.45231  0.35116
E196  E   0.21628  0.45231  0.64884
E197  E   0.21628  0.45231  0.71628
E198  E   0.21628  0.45231  0.78372
E199  E   0.21628  0.54769  0.21628
E200  E   0.21628  0.54769  0.28372
E201  E   0.21628  0.54769  0.35116
E202  E   0.21628  0.54769  0.64884
E203  E   0.21628  0.54769  0.71628
E204  E   0.21628  0.54769  0.78372
E205  E   0.21628  0.64884  0.45231
E206  E   0.21628  0.64884  0.54769
E207  E   0.21628  0.71628  0.04769
E208  E   0.21628  0.71628  0.45231
E209  E   0.21628  0.71628  0.54769
E210  E   0.21628  0.71628  0.95231
E211  E   0.21628  0.78372  0.04769
E212  E   0.21628  0.78372  0.45231
E213  E   0.21628  0.78372  0.54769
E214  E   0.21628  0.78372  0.95231
E215  E   0.21628  0.85116  0.04769
E216  E   0.21628  0.85116  0.95231
E217  E   0.21628  0.95231  0.14884
E218  E   0.21628  0.95231  0.21628
E219  E   0.21628  0.95231  0.28372
E220  E   0.21628  0.95231  0.71628
E221  E   0.21628  0.95231  0.78372
E222  E   0.21628  0.95231  0.85116
E223  E   0.25000  0.00000  0.18256
E224  E   0.25000  0.00000  0.31744
E225  E   0.25000  0.00000  0.68256
E226  E   0.25000  0.00000  0.81744
E227  E   0.25000  0.18256  0.00000
E228  E   0.25000  0.18256  0.50000
E229  E   0.25000  0.31744  0.00000
E230  E   0.25000  0.31744  0.50000
E231  E   0.25000  0.50000  0.18256
E232  E   0.25000  0.50000  0.31744
E233  E   0.25000  0.50000  0.68256
E234  E   0.25000  0.50000  0.81744
E235  E   0.25000  0.68256  0.00000
E236  E   0.25000  0.68256  0.50000
E237  E   0.25000  0.81744  0.00000
E238  E   0.25000  0.81744  0.50000
E239  E   0.28372  0.04769  0.21628
E240  E   0.28372  0.04769  0.28372
E241  E   0.28372  0.04769  0.35116
E242  E   0.28372  0.04769  0.64884
E243  E   0.28372  0.04769  0.71628
E244  E   0.28372  0.04769  0.78372
E245  E   0.28372  0.14884  0.45231
E246  E   0.28372  0.14884  0.54769
E247  E   0.28372  0.21628  0.04769
E248  E   0.28372  0.21628  0.95231
E249  E   0.28372  0.21628  0.45231
E250  E   0.28372  0.21628  0.54769
E251  E   0.28372  0.28372  0.04769
E252  E   0.28372  0.28372  0.95231
E253  E   0.28372  0.28372  0.45231
E254  E   0.28372  0.28372  0.54769
E255  E   0.28372  0.35116  0.04769
E256  E   0.28372  0.35116  0.95231
E257  E   0.28372  0.45231  0.14884
E258  E   0.28372  0.45231  0.21628
E259  E   0.28372  0.45231  0.28372
E260  E   0.28372  0.45231  0.71628
E261  E   0.28372  0.45231  0.78372
E262  E   0.28372  0.45231  0.85116
E263  E   0.28372  0.54769  0.14884
E264  E   0.28372  0.54769  0.21628
E265  E   0.28372  0.54769  0.28372
E266  E   0.28372  0.54769  0.71628
E267  E   0.28372  0.54769  0.78372
E268  E   0.28372  0.54769  0.85116
E269  E   0.28372  0.64884  0.04769
E270  E   0.28372  0.64884  0.95231
E271  E   0.28372  0.71628  0.04769
E272  E   0.28372  0.71628  0.45231
E273  E   0.28372  0.71628  0.54769
E274  E   0.28372  0.71628  0.95231
E275  E   0.28372  0.78372  0.04769
E276  E   0.28372  0.78372  0.45231
E277  E   0.28372  0.78372  0.54769
E278  E   0.28372  0.78372  0.95231
E279  E   0.28372  0.85116  0.45231
E280  E   0.28372  0.85116  0.54769
E281  E   0.28372  0.95231  0.21628
E282  E   0.28372  0.95231  0.28372
E283  E   0.28372  0.95231  0.35116
E284  E   0.28372  0.95231  0.64884
E285  E   0.28372  0.95231  0.71628
E286  E   0.28372  0.95231  0.78372
E287  E   0.28372  0.04769  0.21628
E288  E   0.28372  0.04769  0.78372
E289  E   0.28372  0.21628  0.04769
E290  E   0.28372  0.21628  0.95231
E291  E   0.28372  0.28372  0.45231
E292  E   0.28372  0.28372  0.54769
E293  E   0.28372  0.45231  0.28372
E294  E   0.28372  0.45231  0.71628
E295  E   0.28372  0.54769  0.28372
E296  E   0.28372  0.54769  0.71628
E297  E   0.28372  0.71628  0.45231
E298  E   0.28372  0.71628  0.54769
E299  E   0.28372  0.78372  0.04769
E300  E   0.28372  0.78372  0.95231
E301  E   0.28372  0.95231  0.21628
E302  E   0.28372  0.95231  0.78372
E303  E   0.31744  0.00000  0.25000
E304  E   0.31744  0.00000  0.38488
E305  E   0.31744  0.00000  0.61512
E306  E   0.31744  0.00000  0.75000
E307  E   0.31744  0.08140  0.41860
E308  E   0.31744  0.08140  0.58140
E309  E   0.31744  0.11512  0.50000
E310  E   0.31744  0.25000  0.00000
E311  E   0.31744  0.25000  0.50000
E312  E   0.31744  0.38488  0.00000
E313  E   0.31744  0.41860  0.08140
E314  E   0.31744  0.41860  0.91860
E315  E   0.31744  0.50000  0.11512
E316  E   0.31744  0.50000  0.25000
E317  E   0.31744  0.50000  0.75000
E318  E   0.31744  0.50000  0.88488
E319  E   0.31744  0.58140  0.08140
E320  E   0.31744  0.58140  0.91860
E321  E   0.31744  0.61512  0.00000
E322  E   0.31744  0.75000  0.00000
E323  E   0.31744  0.75000  0.50000
E324  E   0.31744  0.88488  0.50000
E325  E   0.31744  0.91860  0.41860
E326  E   0.31744  0.91860  0.58140
E327  E   0.35116  0.04769  0.28372
E328  E   0.35116  0.04769  0.35116
E329  E   0.35116  0.04769  0.64884
E330  E   0.35116  0.04769  0.71628
E331  E   0.35116  0.14884  0.45231
E332  E   0.35116  0.14884  0.54769
E333  E   0.35116  0.21628  0.45231
E334  E   0.35116  0.21628  0.54769
E335  E   0.35116  0.28372  0.04769
E336  E   0.35116  0.28372  0.95231
E337  E   0.35116  0.35116  0.04769
E338  E   0.35116  0.35116  0.95231
E339  E   0.35116  0.45231  0.14884
E340  E   0.35116  0.45231  0.21628
E341  E   0.35116  0.45231  0.78372
E342  E   0.35116  0.45231  0.85116
E343  E   0.35116  0.54769  0.14884
E344  E   0.35116  0.54769  0.21628
E345  E   0.35116  0.54769  0.78372
E346  E   0.35116  0.54769  0.85116
E347  E   0.35116  0.64884  0.04769
E348  E   0.35116  0.64884  0.95231
E349  E   0.35116  0.71628  0.04769
E350  E   0.35116  0.71628  0.95231
E351  E   0.35116  0.78372  0.45231
E352  E   0.35116  0.78372  0.54769
E353  E   0.35116  0.85116  0.45231
E354  E   0.35116  0.85116  0.54769
E355  E   0.35116  0.95231  0.28372
E356  E   0.35116  0.95231  0.35116
E357  E   0.35116  0.95231  0.64884
E358  E   0.35116  0.95231  0.71628
E359  E   0.38488  0.00000  0.31744
E360  E   0.38488  0.00000  0.68256
E361  E   0.38488  0.18256  0.50000
E362  E   0.38488  0.31744  0.00000
E363  E   0.38488  0.50000  0.18256
E364  E   0.38488  0.50000  0.81744
E365  E   0.38488  0.68256  0.00000
E366  E   0.38488  0.81744  0.50000
E367  E   0.41860  0.08140  0.31744
E368  E   0.41860  0.08140  0.68256
E369  E   0.41860  0.18256  0.41860
E370  E   0.41860  0.18256  0.58140
E371  E   0.41860  0.31744  0.08140
E372  E   0.41860  0.31744  0.91860
E373  E   0.41860  0.41860  0.18256
E374  E   0.41860  0.41860  0.81744
E375  E   0.41860  0.58140  0.18256
E376  E   0.41860  0.58140  0.81744
E377  E   0.41860  0.68256  0.08140
E378  E   0.41860  0.68256  0.91860
E379  E   0.41860  0.81744  0.41860
E380  E   0.41860  0.81744  0.58140
E381  E   0.41860  0.91860  0.31744
E382  E   0.41860  0.91860  0.68256
E383  E   0.45231  0.14884  0.28372
E384  E   0.45231  0.14884  0.35116
E385  E   0.45231  0.14884  0.64884
E386  E   0.45231  0.14884  0.71628
E387  E   0.45231  0.21628  0.21628
E388  E   0.45231  0.21628  0.78372
E389  E   0.45231  0.21628  0.21628
E390  E   0.45231  0.21628  0.28372
E391  E   0.45231  0.21628  0.35116
E392  E   0.45231  0.21628  0.64884
E393  E   0.45231  0.21628  0.71628
E394  E   0.45231  0.21628  0.78372
E395  E   0.45231  0.28372  0.14884
E396  E   0.45231  0.28372  0.21628
E397  E   0.45231  0.28372  0.28372
E398  E   0.45231  0.28372  0.71628
E399  E   0.45231  0.28372  0.78372
E400  E   0.45231  0.28372  0.85116
E401  E   0.45231  0.28372  0.28372
E402  E   0.45231  0.28372  0.71628
E403  E   0.45231  0.35116  0.14884
E404  E   0.45231  0.35116  0.21628
E405  E   0.45231  0.35116  0.78372
E406  E   0.45231  0.35116  0.85116
E407  E   0.45231  0.64884  0.14884
E408  E   0.45231  0.64884  0.21628
E409  E   0.45231  0.64884  0.78372
E410  E   0.45231  0.64884  0.85116
E411  E   0.45231  0.71628  0.14884
E412  E   0.45231  0.71628  0.21628
E413  E   0.45231  0.71628  0.28372
E414  E   0.45231  0.71628  0.28372
E415  E   0.45231  0.71628  0.71628
E416  E   0.45231  0.71628  0.78372
E417  E   0.45231  0.71628  0.85116
E418  E   0.45231  0.78372  0.21628
E419  E   0.45231  0.78372  0.21628
E420  E   0.45231  0.78372  0.28372
E421  E   0.45231  0.78372  0.35116
E422  E   0.45231  0.78372  0.64884
E423  E   0.45231  0.78372  0.71628
E424  E   0.45231  0.78372  0.78372
E425  E   0.45231  0.85116  0.28372
E426  E   0.45231  0.85116  0.35116
E427  E   0.45231  0.85116  0.64884
E428  E   0.45231  0.85116  0.71628
E429  E   0.50000  0.11512  0.31744
E430  E   0.50000  0.11512  0.68256
E431  E   0.50000  0.18256  0.25000
E432  E   0.50000  0.18256  0.38488
E433  E   0.50000  0.18256  0.61512
E434  E   0.50000  0.18256  0.75000
E435  E   0.50000  0.25000  0.18256
E436  E   0.50000  0.25000  0.31744
E437  E   0.50000  0.25000  0.68256
E438  E   0.50000  0.25000  0.81744
E439  E   0.50000  0.31744  0.11512
E440  E   0.50000  0.31744  0.25000
E441  E   0.50000  0.31744  0.75000
E442  E   0.50000  0.31744  0.88488
E443  E   0.50000  0.38488  0.18256
E444  E   0.50000  0.38488  0.81744
E445  E   0.50000  0.61512  0.18256
E446  E   0.50000  0.61512  0.81744
E447  E   0.50000  0.68256  0.11512
E448  E   0.50000  0.68256  0.25000
E449  E   0.50000  0.68256  0.75000
E450  E   0.50000  0.68256  0.88488
E451  E   0.50000  0.75000  0.18256
E452  E   0.50000  0.75000  0.31744
E453  E   0.50000  0.75000  0.68256
E454  E   0.50000  0.75000  0.81744
E455  E   0.50000  0.81744  0.25000
E456  E   0.50000  0.81744  0.38488
E457  E   0.50000  0.81744  0.61512
E458  E   0.50000  0.81744  0.75000
E459  E   0.50000  0.88488  0.31744
E460  E   0.50000  0.88488  0.68256
E461  E   0.54769  0.14884  0.28372
E462  E   0.54769  0.14884  0.35116
E463  E   0.54769  0.14884  0.64884
E464  E   0.54769  0.14884  0.71628
E465  E   0.54769  0.21628  0.21628
E466  E   0.54769  0.21628  0.78372
E467  E   0.54769  0.21628  0.21628
E468  E   0.54769  0.21628  0.28372
E469  E   0.54769  0.21628  0.35116
E470  E   0.54769  0.21628  0.64884
E471  E   0.54769  0.21628  0.71628
E472  E   0.54769  0.21628  0.78372
E473  E   0.54769  0.28372  0.14884
E474  E   0.54769  0.28372  0.21628
E475  E   0.54769  0.28372  0.28372
E476  E   0.54769  0.28372  0.71628
E477  E   0.54769  0.28372  0.78372
E478  E   0.54769  0.28372  0.85116
E479  E   0.54769  0.28372  0.28372
E480  E   0.54769  0.28372  0.71628
E481  E   0.54769  0.35116  0.14884
E482  E   0.54769  0.35116  0.21628
E483  E   0.54769  0.35116  0.78372
E484  E   0.54769  0.35116  0.85116
E485  E   0.54769  0.64884  0.14884
E486  E   0.54769  0.64884  0.21628
E487  E   0.54769  0.64884  0.78372
E488  E   0.54769  0.64884  0.85116
E489  E   0.54769  0.71628  0.14884
E490  E   0.54769  0.71628  0.21628
E491  E   0.54769  0.71628  0.28372
E492  E   0.54769  0.71628  0.28372
E493  E   0.54769  0.71628  0.71628
E494  E   0.54769  0.71628  0.78372
E495  E   0.54769  0.71628  0.85116
E496  E   0.54769  0.78372  0.21628
E497  E   0.54769  0.78372  0.21628
E498  E   0.54769  0.78372  0.28372
E499  E   0.54769  0.78372  0.35116
E500  E   0.54769  0.78372  0.64884
E501  E   0.54769  0.78372  0.71628
E502  E   0.54769  0.78372  0.78372
E503  E   0.54769  0.85116  0.28372
E504  E   0.54769  0.85116  0.35116
E505  E   0.54769  0.85116  0.64884
E506  E   0.54769  0.85116  0.71628
E507  E   0.58140  0.08140  0.31744
E508  E   0.58140  0.08140  0.68256
E509  E   0.58140  0.18256  0.41860
E510  E   0.58140  0.18256  0.58140
E511  E   0.58140  0.31744  0.08140
E512  E   0.58140  0.31744  0.91860
E513  E   0.58140  0.41860  0.18256
E514  E   0.58140  0.41860  0.81744
E515  E   0.58140  0.58140  0.18256
E516  E   0.58140  0.58140  0.81744
E517  E   0.58140  0.68256  0.08140
E518  E   0.58140  0.68256  0.91860
E519  E   0.58140  0.81744  0.41860
E520  E   0.58140  0.81744  0.58140
E521  E   0.58140  0.91860  0.31744
E522  E   0.58140  0.91860  0.68256
E523  E   0.61512  0.00000  0.31744
E524  E   0.61512  0.00000  0.68256
E525  E   0.61512  0.18256  0.50000
E526  E   0.61512  0.31744  0.00000
E527  E   0.61512  0.50000  0.18256
E528  E   0.61512  0.50000  0.81744
E529  E   0.61512  0.68256  0.00000
E530  E   0.61512  0.81744  0.50000
E531  E   0.64884  0.04769  0.28372
E532  E   0.64884  0.04769  0.35116
E533  E   0.64884  0.04769  0.64884
E534  E   0.64884  0.04769  0.71628
E535  E   0.64884  0.14884  0.45231
E536  E   0.64884  0.14884  0.54769
E537  E   0.64884  0.21628  0.45231
E538  E   0.64884  0.21628  0.54769
E539  E   0.64884  0.28372  0.04769
E540  E   0.64884  0.28372  0.95231
E541  E   0.64884  0.35116  0.04769
E542  E   0.64884  0.35116  0.95231
E543  E   0.64884  0.45231  0.14884
E544  E   0.64884  0.45231  0.21628
E545  E   0.64884  0.45231  0.78372
E546  E   0.64884  0.45231  0.85116
E547  E   0.64884  0.54769  0.14884
E548  E   0.64884  0.54769  0.21628
E549  E   0.64884  0.54769  0.78372
E550  E   0.64884  0.54769  0.85116
E551  E   0.64884  0.64884  0.04769
E552  E   0.64884  0.64884  0.95231
E553  E   0.64884  0.71628  0.04769
E554  E   0.64884  0.71628  0.95231
E555  E   0.64884  0.78372  0.45231
E556  E   0.64884  0.78372  0.54769
E557  E   0.64884  0.85116  0.45231
E558  E   0.64884  0.85116  0.54769
E559  E   0.64884  0.95231  0.28372
E560  E   0.64884  0.95231  0.35116
E561  E   0.64884  0.95231  0.64884
E562  E   0.64884  0.95231  0.71628
E563  E   0.68256  0.00000  0.25000
E564  E   0.68256  0.00000  0.38488
E565  E   0.68256  0.00000  0.61512
E566  E   0.68256  0.00000  0.75000
E567  E   0.68256  0.08140  0.41860
E568  E   0.68256  0.08140  0.58140
E569  E   0.68256  0.11512  0.50000
E570  E   0.68256  0.25000  0.00000
E571  E   0.68256  0.25000  0.50000
E572  E   0.68256  0.38488  0.00000
E573  E   0.68256  0.41860  0.08140
E574  E   0.68256  0.41860  0.91860
E575  E   0.68256  0.50000  0.11512
E576  E   0.68256  0.50000  0.25000
E577  E   0.68256  0.50000  0.75000
E578  E   0.68256  0.50000  0.88488
E579  E   0.68256  0.58140  0.08140
E580  E   0.68256  0.58140  0.91860
E581  E   0.68256  0.61512  0.00000
E582  E   0.68256  0.75000  0.00000
E583  E   0.68256  0.75000  0.50000
E584  E   0.68256  0.88488  0.50000
E585  E   0.68256  0.91860  0.41860
E586  E   0.68256  0.91860  0.58140
E587  E   0.71628  0.04769  0.21628
E588  E   0.71628  0.04769  0.21628
E589  E   0.71628  0.04769  0.28372
E590  E   0.71628  0.04769  0.35116
E591  E   0.71628  0.04769  0.64884
E592  E   0.71628  0.04769  0.71628
E593  E   0.71628  0.04769  0.78372
E594  E   0.71628  0.14884  0.45231
E595  E   0.71628  0.14884  0.54769
E596  E   0.71628  0.21628  0.04769
E597  E   0.71628  0.21628  0.95231
E598  E   0.71628  0.21628  0.04769
E599  E   0.71628  0.21628  0.45231
E600  E   0.71628  0.21628  0.54769
E601  E   0.71628  0.21628  0.95231
E602  E   0.71628  0.28372  0.04769
E603  E   0.71628  0.28372  0.45231
E604  E   0.71628  0.28372  0.54769
E605  E   0.71628  0.28372  0.95231
E606  E   0.71628  0.28372  0.45231
E607  E   0.71628  0.28372  0.54769
E608  E   0.71628  0.35116  0.04769
E609  E   0.71628  0.35116  0.95231
E610  E   0.71628  0.45231  0.14884
E611  E   0.71628  0.45231  0.21628
E612  E   0.71628  0.45231  0.28372
E613  E   0.71628  0.45231  0.28372
E614  E   0.71628  0.45231  0.71628
E615  E   0.71628  0.45231  0.78372
E616  E   0.71628  0.45231  0.85116
E617  E   0.71628  0.54769  0.14884
E618  E   0.71628  0.54769  0.21628
E619  E   0.71628  0.54769  0.28372
E620  E   0.71628  0.54769  0.28372
E621  E   0.71628  0.54769  0.71628
E622  E   0.71628  0.54769  0.78372
E623  E   0.71628  0.54769  0.85116
E624  E   0.71628  0.64884  0.04769
E625  E   0.71628  0.64884  0.95231
E626  E   0.71628  0.71628  0.04769
E627  E   0.71628  0.71628  0.45231
E628  E   0.71628  0.71628  0.54769
E629  E   0.71628  0.71628  0.95231
E630  E   0.71628  0.78372  0.04769
E631  E   0.71628  0.78372  0.45231
E632  E   0.71628  0.78372  0.54769
E633  E   0.71628  0.78372  0.95231
E634  E   0.71628  0.85116  0.45231
E635  E   0.71628  0.85116  0.54769
E636  E   0.71628  0.95231  0.21628
E637  E   0.71628  0.95231  0.21628
E638  E   0.71628  0.95231  0.28372
E639  E   0.71628  0.95231  0.35116
E640  E   0.71628  0.95231  0.64884
E641  E   0.71628  0.95231  0.71628
E642  E   0.71628  0.95231  0.78372
E643  E   0.75000  0.00000  0.18256
E644  E   0.75000  0.00000  0.31744
E645  E   0.75000  0.00000  0.68256
E646  E   0.75000  0.00000  0.81744
E647  E   0.75000  0.18256  0.00000
E648  E   0.75000  0.18256  0.50000
E649  E   0.75000  0.31744  0.00000
E650  E   0.75000  0.31744  0.50000
E651  E   0.75000  0.50000  0.18256
E652  E   0.75000  0.50000  0.31744
E653  E   0.75000  0.50000  0.68256
E654  E   0.75000  0.50000  0.81744
E655  E   0.75000  0.68256  0.00000
E656  E   0.75000  0.68256  0.50000
E657  E   0.75000  0.81744  0.00000
E658  E   0.75000  0.81744  0.50000
E659  E   0.78372  0.04769  0.14884
E660  E   0.78372  0.04769  0.21628
E661  E   0.78372  0.04769  0.28372
E662  E   0.78372  0.04769  0.28372
E663  E   0.78372  0.04769  0.71628
E664  E   0.78372  0.04769  0.78372
E665  E   0.78372  0.04769  0.85116
E666  E   0.78372  0.14884  0.04769
E667  E   0.78372  0.14884  0.95231
E668  E   0.78372  0.21628  0.45231
E669  E   0.78372  0.21628  0.54769
E670  E   0.78372  0.21628  0.04769
E671  E   0.78372  0.21628  0.45231
E672  E   0.78372  0.21628  0.54769
E673  E   0.78372  0.21628  0.95231
E674  E   0.78372  0.28372  0.04769
E675  E   0.78372  0.28372  0.45231
E676  E   0.78372  0.28372  0.54769
E677  E   0.78372  0.28372  0.95231
E678  E   0.78372  0.28372  0.04769
E679  E   0.78372  0.28372  0.95231
E680  E   0.78372  0.35116  0.45231
E681  E   0.78372  0.35116  0.54769
E682  E   0.78372  0.45231  0.21628
E683  E   0.78372  0.45231  0.21628
E684  E   0.78372  0.45231  0.28372
E685  E   0.78372  0.45231  0.35116
E686  E   0.78372  0.45231  0.64884
E687  E   0.78372  0.45231  0.71628
E688  E   0.78372  0.45231  0.78372
E689  E   0.78372  0.54769  0.21628
E690  E   0.78372  0.54769  0.21628
E691  E   0.78372  0.54769  0.28372
E692  E   0.78372  0.54769  0.35116
E693  E   0.78372  0.54769  0.64884
E694  E   0.78372  0.54769  0.71628
E695  E   0.78372  0.54769  0.78372
E696  E   0.78372  0.64884  0.45231
E697  E   0.78372  0.64884  0.54769
E698  E   0.78372  0.71628  0.04769
E699  E   0.78372  0.71628  0.45231
E700  E   0.78372  0.71628  0.54769
E701  E   0.78372  0.71628  0.95231
E702  E   0.78372  0.78372  0.04769
E703  E   0.78372  0.78372  0.45231
E704  E   0.78372  0.78372  0.54769
E705  E   0.78372  0.78372  0.95231
E706  E   0.78372  0.85116  0.04769
E707  E   0.78372  0.85116  0.95231
E708  E   0.78372  0.95231  0.14884
E709  E   0.78372  0.95231  0.21628
E710  E   0.78372  0.95231  0.28372
E711  E   0.78372  0.95231  0.28372
E712  E   0.78372  0.95231  0.71628
E713  E   0.78372  0.95231  0.78372
E714  E   0.78372  0.95231  0.85116
E715  E   0.81744  0.00000  0.11512
E716  E   0.81744  0.00000  0.25000
E717  E   0.81744  0.00000  0.75000
E718  E   0.81744  0.00000  0.88488
E719  E   0.81744  0.08140  0.08140
E720  E   0.81744  0.08140  0.91860
E721  E   0.81744  0.11512  0.00000
E722  E   0.81744  0.25000  0.00000
E723  E   0.81744  0.25000  0.50000
E724  E   0.81744  0.38488  0.50000
E725  E   0.81744  0.41860  0.41860
E726  E   0.81744  0.41860  0.58140
E727  E   0.81744  0.50000  0.25000
E728  E   0.81744  0.50000  0.38488
E729  E   0.81744  0.50000  0.61512
E730  E   0.81744  0.50000  0.75000
E731  E   0.81744  0.58140  0.41860
E732  E   0.81744  0.58140  0.58140
E733  E   0.81744  0.61512  0.50000
E734  E   0.81744  0.75000  0.00000
E735  E   0.81744  0.75000  0.50000
E736  E   0.81744  0.88488  0.00000
E737  E   0.81744  0.91860  0.08140
E738  E   0.81744  0.91860  0.91860
E739  E   0.85116  0.04769  0.14884
E740  E   0.85116  0.04769  0.21628
E741  E   0.85116  0.04769  0.78372
E742  E   0.85116  0.04769  0.85116
E743  E   0.85116  0.14884  0.04769
E744  E   0.85116  0.14884  0.95231
E745  E   0.85116  0.21628  0.04769
E746  E   0.85116  0.21628  0.95231
E747  E   0.85116  0.28372  0.45231
E748  E   0.85116  0.28372  0.54769
E749  E   0.85116  0.35116  0.45231
E750  E   0.85116  0.35116  0.54769
E751  E   0.85116  0.45231  0.28372
E752  E   0.85116  0.45231  0.35116
E753  E   0.85116  0.45231  0.64884
E754  E   0.85116  0.45231  0.71628
E755  E   0.85116  0.54769  0.28372
E756  E   0.85116  0.54769  0.35116
E757  E   0.85116  0.54769  0.64884
E758  E   0.85116  0.54769  0.71628
E759  E   0.85116  0.64884  0.45231
E760  E   0.85116  0.64884  0.54769
E761  E   0.85116  0.71628  0.45231
E762  E   0.85116  0.71628  0.54769
E763  E   0.85116  0.78372  0.04769
E764  E   0.85116  0.78372  0.95231
E765  E   0.85116  0.85116  0.04769
E766  E   0.85116  0.85116  0.95231
E767  E   0.85116  0.95231  0.14884
E768  E   0.85116  0.95231  0.21628
E769  E   0.85116  0.95231  0.78372
E770  E   0.85116  0.95231  0.85116
E771  E   0.88488  0.00000  0.18256
E772  E   0.88488  0.00000  0.81744
E773  E   0.88488  0.18256  0.00000
E774  E   0.88488  0.31744  0.50000
E775  E   0.88488  0.50000  0.31744
E776  E   0.88488  0.50000  0.68256
E777  E   0.88488  0.68256  0.50000
E778  E   0.88488  0.81744  0.00000
E779  E   0.91860  0.08140  0.18256
E780  E   0.91860  0.08140  0.81744
E781  E   0.91860  0.18256  0.08140
E782  E   0.91860  0.18256  0.91860
E783  E   0.91860  0.31744  0.41860
E784  E   0.91860  0.31744  0.58140
E785  E   0.91860  0.41860  0.31744
E786  E   0.91860  0.41860  0.68256
E787  E   0.91860  0.58140  0.31744
E788  E   0.91860  0.58140  0.68256
E789  E   0.91860  0.68256  0.41860
E790  E   0.91860  0.68256  0.58140
E791  E   0.91860  0.81744  0.08140
E792  E   0.91860  0.81744  0.91860
E793  E   0.91860  0.91860  0.18256
E794  E   0.91860  0.91860  0.81744
E795  E   0.95231  0.14884  0.14884
E796  E   0.95231  0.14884  0.21628
E797  E   0.95231  0.14884  0.78372
E798  E   0.95231  0.14884  0.85116
E799  E   0.95231  0.21628  0.28372
E800  E   0.95231  0.21628  0.71628
E801  E   0.95231  0.21628  0.14884
E802  E   0.95231  0.21628  0.21628
E803  E   0.95231  0.21628  0.28372
E804  E   0.95231  0.21628  0.71628
E805  E   0.95231  0.21628  0.78372
E806  E   0.95231  0.21628  0.85116
E807  E   0.95231  0.28372  0.21628
E808  E   0.95231  0.28372  0.28372
E809  E   0.95231  0.28372  0.35116
E810  E   0.95231  0.28372  0.64884
E811  E   0.95231  0.28372  0.71628
E812  E   0.95231  0.28372  0.78372
E813  E   0.95231  0.28372  0.21628
E814  E   0.95231  0.28372  0.78372
E815  E   0.95231  0.35116  0.28372
E816  E   0.95231  0.35116  0.35116
E817  E   0.95231  0.35116  0.64884
E818  E   0.95231  0.35116  0.71628
E819  E   0.95231  0.64884  0.28372
E820  E   0.95231  0.64884  0.35116
E821  E   0.95231  0.64884  0.64884
E822  E   0.95231  0.64884  0.71628
E823  E   0.95231  0.71628  0.21628
E824  E   0.95231  0.71628  0.21628
E825  E   0.95231  0.71628  0.28372
E826  E   0.95231  0.71628  0.35116
E827  E   0.95231  0.71628  0.64884
E828  E   0.95231  0.71628  0.71628
E829  E   0.95231  0.71628  0.78372
E830  E   0.95231  0.78372  0.14884
E831  E   0.95231  0.78372  0.21628
E832  E   0.95231  0.78372  0.28372
E833  E   0.95231  0.78372  0.28372
E834  E   0.95231  0.78372  0.71628
E835  E   0.95231  0.78372  0.78372
E836  E   0.95231  0.78372  0.85116
E837  E   0.95231  0.85116  0.14884
E838  E   0.95231  0.85116  0.21628
E839  E   0.95231  0.85116  0.78372
E840  E   0.95231  0.85116  0.85116
loop_
