data_fts_Fm-3m  hall_number: 523, V_con: 4, EC_con: 4
_audit_creation_date              2025-03-05
_audit_creation_method            'MOFbuilder_1.0'
_symmetry_space_group_name_H-M    'P1'
_symmetry_Int_Tables_number       1
_symmetry_cell_setting            triclinic
loop_
_symmetry_equiv_pos_as_xyz
  x,y,z
_cell_length_a                    10.10635
_cell_length_b                    10.10635
_cell_length_c                    10.10635
_cell_angle_alpha                 90.0
_cell_angle_beta                  90.0
_cell_angle_gamma                 90.0
loop_
_atom_site_label
_atom_site_type_symbol
_atom_site_fract_x
_atom_site_fract_y
_atom_site_fract_z
V1    V   0.04947  0.11944  0.31059
V2    V   0.04947  0.11944  0.68941
V3    V   0.04947  0.18941  0.38056
V4    V   0.04947  0.18941  0.61944
V5    V   0.04947  0.31059  0.11944
V6    V   0.04947  0.31059  0.88056
V7    V   0.04947  0.38056  0.18941
V8    V   0.04947  0.38056  0.81059
V9    V   0.04947  0.61944  0.18941
V10   V   0.04947  0.61944  0.81059
V11   V   0.04947  0.68941  0.11944
V12   V   0.04947  0.68941  0.88056
V13   V   0.04947  0.81059  0.38056
V14   V   0.04947  0.81059  0.61944
V15   V   0.04947  0.88056  0.31059
V16   V   0.04947  0.88056  0.68941
V17   V   0.11944  0.04947  0.31059
V18   V   0.11944  0.04947  0.68941
V19   V   0.11944  0.18941  0.45053
V20   V   0.11944  0.18941  0.54947
V21   V   0.11944  0.31059  0.04947
V22   V   0.11944  0.31059  0.95053
V23   V   0.11944  0.45053  0.18941
V24   V   0.11944  0.45053  0.81059
V25   V   0.11944  0.54947  0.18941
V26   V   0.11944  0.54947  0.81059
V27   V   0.11944  0.68941  0.04947
V28   V   0.11944  0.68941  0.95053
V29   V   0.11944  0.81059  0.45053
V30   V   0.11944  0.81059  0.54947
V31   V   0.11944  0.95053  0.31059
V32   V   0.11944  0.95053  0.68941
V33   V   0.18941  0.04947  0.38056
V34   V   0.18941  0.04947  0.61944
V35   V   0.18941  0.11944  0.45053
V36   V   0.18941  0.11944  0.54947
V37   V   0.18941  0.38056  0.04947
V38   V   0.18941  0.38056  0.95053
V39   V   0.18941  0.45053  0.11944
V40   V   0.18941  0.45053  0.88056
V41   V   0.18941  0.54947  0.11944
V42   V   0.18941  0.54947  0.88056
V43   V   0.18941  0.61944  0.04947
V44   V   0.18941  0.61944  0.95053
V45   V   0.18941  0.88056  0.45053
V46   V   0.18941  0.88056  0.54947
V47   V   0.18941  0.95053  0.38056
V48   V   0.18941  0.95053  0.61944
V49   V   0.31059  0.04947  0.11944
V50   V   0.31059  0.04947  0.88056
V51   V   0.31059  0.11944  0.04947
V52   V   0.31059  0.11944  0.95053
V53   V   0.31059  0.38056  0.45053
V54   V   0.31059  0.38056  0.54947
V55   V   0.31059  0.45053  0.38056
V56   V   0.31059  0.45053  0.61944
V57   V   0.31059  0.54947  0.38056
V58   V   0.31059  0.54947  0.61944
V59   V   0.31059  0.61944  0.45053
V60   V   0.31059  0.61944  0.54947
V61   V   0.31059  0.88056  0.04947
V62   V   0.31059  0.88056  0.95053
V63   V   0.31059  0.95053  0.11944
V64   V   0.31059  0.95053  0.88056
V65   V   0.38056  0.04947  0.18941
V66   V   0.38056  0.04947  0.81059
V67   V   0.38056  0.18941  0.04947
V68   V   0.38056  0.18941  0.95053
V69   V   0.38056  0.31059  0.45053
V70   V   0.38056  0.31059  0.54947
V71   V   0.38056  0.45053  0.31059
V72   V   0.38056  0.45053  0.68941
V73   V   0.38056  0.54947  0.31059
V74   V   0.38056  0.54947  0.68941
V75   V   0.38056  0.68941  0.45053
V76   V   0.38056  0.68941  0.54947
V77   V   0.38056  0.81059  0.04947
V78   V   0.38056  0.81059  0.95053
V79   V   0.38056  0.95053  0.18941
V80   V   0.38056  0.95053  0.81059
V81   V   0.45053  0.11944  0.18941
V82   V   0.45053  0.11944  0.81059
V83   V   0.45053  0.18941  0.11944
V84   V   0.45053  0.18941  0.88056
V85   V   0.45053  0.31059  0.38056
V86   V   0.45053  0.31059  0.61944
V87   V   0.45053  0.38056  0.31059
V88   V   0.45053  0.38056  0.68941
V89   V   0.45053  0.61944  0.31059
V90   V   0.45053  0.61944  0.68941
V91   V   0.45053  0.68941  0.38056
V92   V   0.45053  0.68941  0.61944
V93   V   0.45053  0.81059  0.11944
V94   V   0.45053  0.81059  0.88056
V95   V   0.45053  0.88056  0.18941
V96   V   0.45053  0.88056  0.81059
V97   V   0.54947  0.11944  0.18941
V98   V   0.54947  0.11944  0.81059
V99   V   0.54947  0.18941  0.11944
V100  V   0.54947  0.18941  0.88056
V101  V   0.54947  0.31059  0.38056
V102  V   0.54947  0.31059  0.61944
V103  V   0.54947  0.38056  0.31059
V104  V   0.54947  0.38056  0.68941
V105  V   0.54947  0.61944  0.31059
V106  V   0.54947  0.61944  0.68941
V107  V   0.54947  0.68941  0.38056
V108  V   0.54947  0.68941  0.61944
V109  V   0.54947  0.81059  0.11944
V110  V   0.54947  0.81059  0.88056
V111  V   0.54947  0.88056  0.18941
V112  V   0.54947  0.88056  0.81059
V113  V   0.61944  0.04947  0.18941
V114  V   0.61944  0.04947  0.81059
V115  V   0.61944  0.18941  0.04947
V116  V   0.61944  0.18941  0.95053
V117  V   0.61944  0.31059  0.45053
V118  V   0.61944  0.31059  0.54947
V119  V   0.61944  0.45053  0.31059
V120  V   0.61944  0.45053  0.68941
V121  V   0.61944  0.54947  0.31059
V122  V   0.61944  0.54947  0.68941
V123  V   0.61944  0.68941  0.45053
V124  V   0.61944  0.68941  0.54947
V125  V   0.61944  0.81059  0.04947
V126  V   0.61944  0.81059  0.95053
V127  V   0.61944  0.95053  0.18941
V128  V   0.61944  0.95053  0.81059
V129  V   0.68941  0.04947  0.11944
V130  V   0.68941  0.04947  0.88056
V131  V   0.68941  0.11944  0.04947
V132  V   0.68941  0.11944  0.95053
V133  V   0.68941  0.38056  0.45053
V134  V   0.68941  0.38056  0.54947
V135  V   0.68941  0.45053  0.38056
V136  V   0.68941  0.45053  0.61944
V137  V   0.68941  0.54947  0.38056
V138  V   0.68941  0.54947  0.61944
V139  V   0.68941  0.61944  0.45053
V140  V   0.68941  0.61944  0.54947
V141  V   0.68941  0.88056  0.04947
V142  V   0.68941  0.88056  0.95053
V143  V   0.68941  0.95053  0.11944
V144  V   0.68941  0.95053  0.88056
V145  V   0.81059  0.04947  0.38056
V146  V   0.81059  0.04947  0.61944
V147  V   0.81059  0.11944  0.45053
V148  V   0.81059  0.11944  0.54947
V149  V   0.81059  0.38056  0.04947
V150  V   0.81059  0.38056  0.95053
V151  V   0.81059  0.45053  0.11944
V152  V   0.81059  0.45053  0.88056
V153  V   0.81059  0.54947  0.11944
V154  V   0.81059  0.54947  0.88056
V155  V   0.81059  0.61944  0.04947
V156  V   0.81059  0.61944  0.95053
V157  V   0.81059  0.88056  0.45053
V158  V   0.81059  0.88056  0.54947
V159  V   0.81059  0.95053  0.38056
V160  V   0.81059  0.95053  0.61944
V161  V   0.88056  0.04947  0.31059
V162  V   0.88056  0.04947  0.68941
V163  V   0.88056  0.18941  0.45053
V164  V   0.88056  0.18941  0.54947
V165  V   0.88056  0.31059  0.04947
V166  V   0.88056  0.31059  0.95053
V167  V   0.88056  0.45053  0.18941
V168  V   0.88056  0.45053  0.81059
V169  V   0.88056  0.54947  0.18941
V170  V   0.88056  0.54947  0.81059
V171  V   0.88056  0.68941  0.04947
V172  V   0.88056  0.68941  0.95053
V173  V   0.88056  0.81059  0.45053
V174  V   0.88056  0.81059  0.54947
V175  V   0.88056  0.95053  0.31059
V176  V   0.88056  0.95053  0.68941
V177  V   0.95053  0.11944  0.31059
V178  V   0.95053  0.11944  0.68941
V179  V   0.95053  0.18941  0.38056
V180  V   0.95053  0.18941  0.61944
V181  V   0.95053  0.31059  0.11944
V182  V   0.95053  0.31059  0.88056
V183  V   0.95053  0.38056  0.18941
V184  V   0.95053  0.38056  0.81059
V185  V   0.95053  0.61944  0.18941
V186  V   0.95053  0.61944  0.81059
V187  V   0.95053  0.68941  0.11944
V188  V   0.95053  0.68941  0.88056
V189  V   0.95053  0.81059  0.38056
V190  V   0.95053  0.81059  0.61944
V191  V   0.95053  0.88056  0.31059
V192  V   0.95053  0.88056  0.68941
EC1    EC   0.00000  0.18003  0.25000
EC2    EC   0.00000  0.18003  0.75000
EC3    EC   0.00000  0.25000  0.18003
EC4    EC   0.00000  0.25000  0.31997
EC5    EC   0.00000  0.25000  0.68003
EC6    EC   0.00000  0.25000  0.81997
EC7    EC   0.00000  0.31997  0.25000
EC8    EC   0.00000  0.31997  0.75000
EC9    EC   0.00000  0.68003  0.25000
EC10   EC   0.00000  0.68003  0.75000
EC11   EC   0.00000  0.75000  0.18003
EC12   EC   0.00000  0.75000  0.31997
EC13   EC   0.00000  0.75000  0.68003
EC14   EC   0.00000  0.75000  0.81997
EC15   EC   0.00000  0.81997  0.25000
EC16   EC   0.00000  0.81997  0.75000
EC17   EC   0.18003  0.00000  0.25000
EC18   EC   0.18003  0.00000  0.75000
EC19   EC   0.18003  0.25000  0.00000
EC20   EC   0.18003  0.25000  0.50000
EC21   EC   0.18003  0.50000  0.25000
EC22   EC   0.18003  0.50000  0.75000
EC23   EC   0.18003  0.75000  0.00000
EC24   EC   0.18003  0.75000  0.50000
EC25   EC   0.25000  0.00000  0.18003
EC26   EC   0.25000  0.00000  0.31997
EC27   EC   0.25000  0.00000  0.68003
EC28   EC   0.25000  0.00000  0.81997
EC29   EC   0.25000  0.18003  0.00000
EC30   EC   0.25000  0.18003  0.50000
EC31   EC   0.25000  0.31997  0.00000
EC32   EC   0.25000  0.31997  0.50000
EC33   EC   0.25000  0.50000  0.18003
EC34   EC   0.25000  0.50000  0.31997
EC35   EC   0.25000  0.50000  0.68003
EC36   EC   0.25000  0.50000  0.81997
EC37   EC   0.25000  0.68003  0.00000
EC38   EC   0.25000  0.68003  0.50000
EC39   EC   0.25000  0.81997  0.00000
EC40   EC   0.25000  0.81997  0.50000
EC41   EC   0.31997  0.00000  0.25000
EC42   EC   0.31997  0.00000  0.75000
EC43   EC   0.31997  0.25000  0.00000
EC44   EC   0.31997  0.25000  0.50000
EC45   EC   0.31997  0.50000  0.25000
EC46   EC   0.31997  0.50000  0.75000
EC47   EC   0.31997  0.75000  0.00000
EC48   EC   0.31997  0.75000  0.50000
EC49   EC   0.50000  0.18003  0.25000
EC50   EC   0.50000  0.18003  0.75000
EC51   EC   0.50000  0.25000  0.18003
EC52   EC   0.50000  0.25000  0.31997
EC53   EC   0.50000  0.25000  0.68003
EC54   EC   0.50000  0.25000  0.81997
EC55   EC   0.50000  0.31997  0.25000
EC56   EC   0.50000  0.31997  0.75000
EC57   EC   0.50000  0.68003  0.25000
EC58   EC   0.50000  0.68003  0.75000
EC59   EC   0.50000  0.75000  0.18003
EC60   EC   0.50000  0.75000  0.31997
EC61   EC   0.50000  0.75000  0.68003
EC62   EC   0.50000  0.75000  0.81997
EC63   EC   0.50000  0.81997  0.25000
EC64   EC   0.50000  0.81997  0.75000
EC65   EC   0.68003  0.00000  0.25000
EC66   EC   0.68003  0.00000  0.75000
EC67   EC   0.68003  0.25000  0.00000
EC68   EC   0.68003  0.25000  0.50000
EC69   EC   0.68003  0.50000  0.25000
EC70   EC   0.68003  0.50000  0.75000
EC71   EC   0.68003  0.75000  0.00000
EC72   EC   0.68003  0.75000  0.50000
EC73   EC   0.75000  0.00000  0.18003
EC74   EC   0.75000  0.00000  0.31997
EC75   EC   0.75000  0.00000  0.68003
EC76   EC   0.75000  0.00000  0.81997
EC77   EC   0.75000  0.18003  0.00000
EC78   EC   0.75000  0.18003  0.50000
EC79   EC   0.75000  0.31997  0.00000
EC80   EC   0.75000  0.31997  0.50000
EC81   EC   0.75000  0.50000  0.18003
EC82   EC   0.75000  0.50000  0.31997
EC83   EC   0.75000  0.50000  0.68003
EC84   EC   0.75000  0.50000  0.81997
EC85   EC   0.75000  0.68003  0.00000
EC86   EC   0.75000  0.68003  0.50000
EC87   EC   0.75000  0.81997  0.00000
EC88   EC   0.75000  0.81997  0.50000
EC89   EC   0.81997  0.00000  0.25000
EC90   EC   0.81997  0.00000  0.75000
EC91   EC   0.81997  0.25000  0.00000
EC92   EC   0.81997  0.25000  0.50000
EC93   EC   0.81997  0.50000  0.25000
EC94   EC   0.81997  0.50000  0.75000
EC95   EC   0.81997  0.75000  0.00000
EC96   EC   0.81997  0.75000  0.50000
E1    E   0.00000  0.11944  0.31059
E2    E   0.00000  0.11944  0.68941
E3    E   0.00000  0.18941  0.38056
E4    E   0.00000  0.18941  0.61944
E5    E   0.00000  0.21502  0.21502
E6    E   0.00000  0.21502  0.28498
E7    E   0.00000  0.21502  0.71502
E8    E   0.00000  0.21502  0.78498
E9    E   0.00000  0.28498  0.21502
E10   E   0.00000  0.28498  0.28498
E11   E   0.00000  0.28498  0.71502
E12   E   0.00000  0.28498  0.78498
E13   E   0.00000  0.31059  0.11944
E14   E   0.00000  0.31059  0.88056
E15   E   0.00000  0.38056  0.18941
E16   E   0.00000  0.38056  0.81059
E17   E   0.00000  0.61944  0.18941
E18   E   0.00000  0.61944  0.81059
E19   E   0.00000  0.68941  0.11944
E20   E   0.00000  0.68941  0.88056
E21   E   0.00000  0.71502  0.21502
E22   E   0.00000  0.71502  0.28498
E23   E   0.00000  0.71502  0.71502
E24   E   0.00000  0.71502  0.78498
E25   E   0.00000  0.78498  0.21502
E26   E   0.00000  0.78498  0.28498
E27   E   0.00000  0.78498  0.71502
E28   E   0.00000  0.78498  0.78498
E29   E   0.00000  0.81059  0.38056
E30   E   0.00000  0.81059  0.61944
E31   E   0.00000  0.88056  0.31059
E32   E   0.00000  0.88056  0.68941
E33   E   0.02474  0.14974  0.28030
E34   E   0.02474  0.14974  0.71970
E35   E   0.02474  0.21970  0.35026
E36   E   0.02474  0.21970  0.64974
E37   E   0.02474  0.28030  0.14974
E38   E   0.02474  0.28030  0.85026
E39   E   0.02474  0.35026  0.21970
E40   E   0.02474  0.35026  0.78030
E41   E   0.02474  0.64974  0.21970
E42   E   0.02474  0.64974  0.78030
E43   E   0.02474  0.71970  0.14974
E44   E   0.02474  0.71970  0.85026
E45   E   0.02474  0.78030  0.35026
E46   E   0.02474  0.78030  0.64974
E47   E   0.02474  0.85026  0.28030
E48   E   0.02474  0.85026  0.71970
E49   E   0.04947  0.15442  0.34558
E50   E   0.04947  0.15442  0.65442
E51   E   0.04947  0.34558  0.15442
E52   E   0.04947  0.34558  0.84558
E53   E   0.04947  0.65442  0.15442
E54   E   0.04947  0.65442  0.84558
E55   E   0.04947  0.84558  0.34558
E56   E   0.04947  0.84558  0.65442
E57   E   0.08446  0.08446  0.31059
E58   E   0.08446  0.08446  0.68941
E59   E   0.08446  0.18941  0.41554
E60   E   0.08446  0.18941  0.58446
E61   E   0.08446  0.31059  0.08446
E62   E   0.08446  0.31059  0.91554
E63   E   0.08446  0.41554  0.18941
E64   E   0.08446  0.41554  0.81059
E65   E   0.08446  0.58446  0.18941
E66   E   0.08446  0.58446  0.81059
E67   E   0.08446  0.68941  0.08446
E68   E   0.08446  0.68941  0.91554
E69   E   0.08446  0.81059  0.41554
E70   E   0.08446  0.81059  0.58446
E71   E   0.08446  0.91554  0.31059
E72   E   0.08446  0.91554  0.68941
E73   E   0.11944  0.00000  0.31059
E74   E   0.11944  0.00000  0.68941
E75   E   0.11944  0.18941  0.50000
E76   E   0.11944  0.31059  0.00000
E77   E   0.11944  0.50000  0.18941
E78   E   0.11944  0.50000  0.81059
E79   E   0.11944  0.68941  0.00000
E80   E   0.11944  0.81059  0.50000
E81   E   0.14974  0.02474  0.28030
E82   E   0.14974  0.02474  0.71970
E83   E   0.14974  0.21970  0.47526
E84   E   0.14974  0.21970  0.52474
E85   E   0.14974  0.28030  0.02474
E86   E   0.14974  0.28030  0.97526
E87   E   0.14974  0.47526  0.21970
E88   E   0.14974  0.47526  0.78030
E89   E   0.14974  0.52474  0.21970
E90   E   0.14974  0.52474  0.78030
E91   E   0.14974  0.71970  0.02474
E92   E   0.14974  0.71970  0.97526
E93   E   0.14974  0.78030  0.47526
E94   E   0.14974  0.78030  0.52474
E95   E   0.14974  0.97526  0.28030
E96   E   0.14974  0.97526  0.71970
E97   E   0.15442  0.04947  0.34558
E98   E   0.15442  0.04947  0.65442
E99   E   0.15442  0.15442  0.45053
E100  E   0.15442  0.15442  0.54947
E101  E   0.15442  0.34558  0.04947
E102  E   0.15442  0.34558  0.95053
E103  E   0.15442  0.45053  0.15442
E104  E   0.15442  0.45053  0.84558
E105  E   0.15442  0.54947  0.15442
E106  E   0.15442  0.54947  0.84558
E107  E   0.15442  0.65442  0.04947
E108  E   0.15442  0.65442  0.95053
E109  E   0.15442  0.84558  0.45053
E110  E   0.15442  0.84558  0.54947
E111  E   0.15442  0.95053  0.34558
E112  E   0.15442  0.95053  0.65442
E113  E   0.18941  0.00000  0.38056
E114  E   0.18941  0.00000  0.61944
E115  E   0.18941  0.08446  0.41554
E116  E   0.18941  0.08446  0.58446
E117  E   0.18941  0.11944  0.50000
E118  E   0.18941  0.38056  0.00000
E119  E   0.18941  0.41554  0.08446
E120  E   0.18941  0.41554  0.91554
E121  E   0.18941  0.50000  0.11944
E122  E   0.18941  0.50000  0.88056
E123  E   0.18941  0.58446  0.08446
E124  E   0.18941  0.58446  0.91554
E125  E   0.18941  0.61944  0.00000
E126  E   0.18941  0.88056  0.50000
E127  E   0.18941  0.91554  0.41554
E128  E   0.18941  0.91554  0.58446
E129  E   0.21502  0.00000  0.21502
E130  E   0.21502  0.00000  0.28498
E131  E   0.21502  0.00000  0.71502
E132  E   0.21502  0.00000  0.78498
E133  E   0.21502  0.21502  0.00000
E134  E   0.21502  0.21502  0.50000
E135  E   0.21502  0.28498  0.00000
E136  E   0.21502  0.28498  0.50000
E137  E   0.21502  0.50000  0.21502
E138  E   0.21502  0.50000  0.28498
E139  E   0.21502  0.50000  0.71502
E140  E   0.21502  0.50000  0.78498
E141  E   0.21502  0.71502  0.00000
E142  E   0.21502  0.71502  0.50000
E143  E   0.21502  0.78498  0.00000
E144  E   0.21502  0.78498  0.50000
E145  E   0.21970  0.02474  0.35026
E146  E   0.21970  0.02474  0.64974
E147  E   0.21970  0.14974  0.47526
E148  E   0.21970  0.14974  0.52474
E149  E   0.21970  0.35026  0.02474
E150  E   0.21970  0.35026  0.97526
E151  E   0.21970  0.47526  0.14974
E152  E   0.21970  0.47526  0.85026
E153  E   0.21970  0.52474  0.14974
E154  E   0.21970  0.52474  0.85026
E155  E   0.21970  0.64974  0.02474
E156  E   0.21970  0.64974  0.97526
E157  E   0.21970  0.85026  0.47526
E158  E   0.21970  0.85026  0.52474
E159  E   0.21970  0.97526  0.35026
E160  E   0.21970  0.97526  0.64974
E161  E   0.28030  0.02474  0.14974
E162  E   0.28030  0.02474  0.85026
E163  E   0.28030  0.14974  0.02474
E164  E   0.28030  0.14974  0.97526
E165  E   0.28030  0.35026  0.47526
E166  E   0.28030  0.35026  0.52474
E167  E   0.28030  0.47526  0.35026
E168  E   0.28030  0.47526  0.64974
E169  E   0.28030  0.52474  0.35026
E170  E   0.28030  0.52474  0.64974
E171  E   0.28030  0.64974  0.47526
E172  E   0.28030  0.64974  0.52474
E173  E   0.28030  0.85026  0.02474
E174  E   0.28030  0.85026  0.97526
E175  E   0.28030  0.97526  0.14974
E176  E   0.28030  0.97526  0.85026
E177  E   0.28498  0.00000  0.21502
E178  E   0.28498  0.00000  0.28498
E179  E   0.28498  0.00000  0.71502
E180  E   0.28498  0.00000  0.78498
E181  E   0.28498  0.21502  0.00000
E182  E   0.28498  0.21502  0.50000
E183  E   0.28498  0.28498  0.00000
E184  E   0.28498  0.28498  0.50000
E185  E   0.28498  0.50000  0.21502
E186  E   0.28498  0.50000  0.28498
E187  E   0.28498  0.50000  0.71502
E188  E   0.28498  0.50000  0.78498
E189  E   0.28498  0.71502  0.00000
E190  E   0.28498  0.71502  0.50000
E191  E   0.28498  0.78498  0.00000
E192  E   0.28498  0.78498  0.50000
E193  E   0.31059  0.00000  0.11944
E194  E   0.31059  0.00000  0.88056
E195  E   0.31059  0.08446  0.08446
E196  E   0.31059  0.08446  0.91554
E197  E   0.31059  0.11944  0.00000
E198  E   0.31059  0.38056  0.50000
E199  E   0.31059  0.41554  0.41554
E200  E   0.31059  0.41554  0.58446
E201  E   0.31059  0.50000  0.38056
E202  E   0.31059  0.50000  0.61944
E203  E   0.31059  0.58446  0.41554
E204  E   0.31059  0.58446  0.58446
E205  E   0.31059  0.61944  0.50000
E206  E   0.31059  0.88056  0.00000
E207  E   0.31059  0.91554  0.08446
E208  E   0.31059  0.91554  0.91554
E209  E   0.34558  0.04947  0.15442
E210  E   0.34558  0.04947  0.84558
E211  E   0.34558  0.15442  0.04947
E212  E   0.34558  0.15442  0.95053
E213  E   0.34558  0.34558  0.45053
E214  E   0.34558  0.34558  0.54947
E215  E   0.34558  0.45053  0.34558
E216  E   0.34558  0.45053  0.65442
E217  E   0.34558  0.54947  0.34558
E218  E   0.34558  0.54947  0.65442
E219  E   0.34558  0.65442  0.45053
E220  E   0.34558  0.65442  0.54947
E221  E   0.34558  0.84558  0.04947
E222  E   0.34558  0.84558  0.95053
E223  E   0.34558  0.95053  0.15442
E224  E   0.34558  0.95053  0.84558
E225  E   0.35026  0.02474  0.21970
E226  E   0.35026  0.02474  0.78030
E227  E   0.35026  0.21970  0.02474
E228  E   0.35026  0.21970  0.97526
E229  E   0.35026  0.28030  0.47526
E230  E   0.35026  0.28030  0.52474
E231  E   0.35026  0.47526  0.28030
E232  E   0.35026  0.47526  0.71970
E233  E   0.35026  0.52474  0.28030
E234  E   0.35026  0.52474  0.71970
E235  E   0.35026  0.71970  0.47526
E236  E   0.35026  0.71970  0.52474
E237  E   0.35026  0.78030  0.02474
E238  E   0.35026  0.78030  0.97526
E239  E   0.35026  0.97526  0.21970
E240  E   0.35026  0.97526  0.78030
E241  E   0.38056  0.00000  0.18941
E242  E   0.38056  0.00000  0.81059
E243  E   0.38056  0.18941  0.00000
E244  E   0.38056  0.31059  0.50000
E245  E   0.38056  0.50000  0.31059
E246  E   0.38056  0.50000  0.68941
E247  E   0.38056  0.68941  0.50000
E248  E   0.38056  0.81059  0.00000
E249  E   0.41554  0.08446  0.18941
E250  E   0.41554  0.08446  0.81059
E251  E   0.41554  0.18941  0.08446
E252  E   0.41554  0.18941  0.91554
E253  E   0.41554  0.31059  0.41554
E254  E   0.41554  0.31059  0.58446
E255  E   0.41554  0.41554  0.31059
E256  E   0.41554  0.41554  0.68941
E257  E   0.41554  0.58446  0.31059
E258  E   0.41554  0.58446  0.68941
E259  E   0.41554  0.68941  0.41554
E260  E   0.41554  0.68941  0.58446
E261  E   0.41554  0.81059  0.08446
E262  E   0.41554  0.81059  0.91554
E263  E   0.41554  0.91554  0.18941
E264  E   0.41554  0.91554  0.81059
E265  E   0.45053  0.15442  0.15442
E266  E   0.45053  0.15442  0.84558
E267  E   0.45053  0.34558  0.34558
E268  E   0.45053  0.34558  0.65442
E269  E   0.45053  0.65442  0.34558
E270  E   0.45053  0.65442  0.65442
E271  E   0.45053  0.84558  0.15442
E272  E   0.45053  0.84558  0.84558
E273  E   0.47526  0.14974  0.21970
E274  E   0.47526  0.14974  0.78030
E275  E   0.47526  0.21970  0.14974
E276  E   0.47526  0.21970  0.85026
E277  E   0.47526  0.28030  0.35026
E278  E   0.47526  0.28030  0.64974
E279  E   0.47526  0.35026  0.28030
E280  E   0.47526  0.35026  0.71970
E281  E   0.47526  0.64974  0.28030
E282  E   0.47526  0.64974  0.71970
E283  E   0.47526  0.71970  0.35026
E284  E   0.47526  0.71970  0.64974
E285  E   0.47526  0.78030  0.14974
E286  E   0.47526  0.78030  0.85026
E287  E   0.47526  0.85026  0.21970
E288  E   0.47526  0.85026  0.78030
E289  E   0.50000  0.11944  0.18941
E290  E   0.50000  0.11944  0.81059
E291  E   0.50000  0.18941  0.11944
E292  E   0.50000  0.18941  0.88056
E293  E   0.50000  0.21502  0.21502
E294  E   0.50000  0.21502  0.28498
E295  E   0.50000  0.21502  0.71502
E296  E   0.50000  0.21502  0.78498
E297  E   0.50000  0.28498  0.21502
E298  E   0.50000  0.28498  0.28498
E299  E   0.50000  0.28498  0.71502
E300  E   0.50000  0.28498  0.78498
E301  E   0.50000  0.31059  0.38056
E302  E   0.50000  0.31059  0.61944
E303  E   0.50000  0.38056  0.31059
E304  E   0.50000  0.38056  0.68941
E305  E   0.50000  0.61944  0.31059
E306  E   0.50000  0.61944  0.68941
E307  E   0.50000  0.68941  0.38056
E308  E   0.50000  0.68941  0.61944
E309  E   0.50000  0.71502  0.21502
E310  E   0.50000  0.71502  0.28498
E311  E   0.50000  0.71502  0.71502
E312  E   0.50000  0.71502  0.78498
E313  E   0.50000  0.78498  0.21502
E314  E   0.50000  0.78498  0.28498
E315  E   0.50000  0.78498  0.71502
E316  E   0.50000  0.78498  0.78498
E317  E   0.50000  0.81059  0.11944
E318  E   0.50000  0.81059  0.88056
E319  E   0.50000  0.88056  0.18941
E320  E   0.50000  0.88056  0.81059
E321  E   0.52474  0.14974  0.21970
E322  E   0.52474  0.14974  0.78030
E323  E   0.52474  0.21970  0.14974
E324  E   0.52474  0.21970  0.85026
E325  E   0.52474  0.28030  0.35026
E326  E   0.52474  0.28030  0.64974
E327  E   0.52474  0.35026  0.28030
E328  E   0.52474  0.35026  0.71970
E329  E   0.52474  0.64974  0.28030
E330  E   0.52474  0.64974  0.71970
E331  E   0.52474  0.71970  0.35026
E332  E   0.52474  0.71970  0.64974
E333  E   0.52474  0.78030  0.14974
E334  E   0.52474  0.78030  0.85026
E335  E   0.52474  0.85026  0.21970
E336  E   0.52474  0.85026  0.78030
E337  E   0.54947  0.15442  0.15442
E338  E   0.54947  0.15442  0.84558
E339  E   0.54947  0.34558  0.34558
E340  E   0.54947  0.34558  0.65442
E341  E   0.54947  0.65442  0.34558
E342  E   0.54947  0.65442  0.65442
E343  E   0.54947  0.84558  0.15442
E344  E   0.54947  0.84558  0.84558
E345  E   0.58446  0.08446  0.18941
E346  E   0.58446  0.08446  0.81059
E347  E   0.58446  0.18941  0.08446
E348  E   0.58446  0.18941  0.91554
E349  E   0.58446  0.31059  0.41554
E350  E   0.58446  0.31059  0.58446
E351  E   0.58446  0.41554  0.31059
E352  E   0.58446  0.41554  0.68941
E353  E   0.58446  0.58446  0.31059
E354  E   0.58446  0.58446  0.68941
E355  E   0.58446  0.68941  0.41554
E356  E   0.58446  0.68941  0.58446
E357  E   0.58446  0.81059  0.08446
E358  E   0.58446  0.81059  0.91554
E359  E   0.58446  0.91554  0.18941
E360  E   0.58446  0.91554  0.81059
E361  E   0.61944  0.00000  0.18941
E362  E   0.61944  0.00000  0.81059
E363  E   0.61944  0.18941  0.00000
E364  E   0.61944  0.31059  0.50000
E365  E   0.61944  0.50000  0.31059
E366  E   0.61944  0.50000  0.68941
E367  E   0.61944  0.68941  0.50000
E368  E   0.61944  0.81059  0.00000
E369  E   0.64974  0.02474  0.21970
E370  E   0.64974  0.02474  0.78030
E371  E   0.64974  0.21970  0.02474
E372  E   0.64974  0.21970  0.97526
E373  E   0.64974  0.28030  0.47526
E374  E   0.64974  0.28030  0.52474
E375  E   0.64974  0.47526  0.28030
E376  E   0.64974  0.47526  0.71970
E377  E   0.64974  0.52474  0.28030
E378  E   0.64974  0.52474  0.71970
E379  E   0.64974  0.71970  0.47526
E380  E   0.64974  0.71970  0.52474
E381  E   0.64974  0.78030  0.02474
E382  E   0.64974  0.78030  0.97526
E383  E   0.64974  0.97526  0.21970
E384  E   0.64974  0.97526  0.78030
E385  E   0.65442  0.04947  0.15442
E386  E   0.65442  0.04947  0.84558
E387  E   0.65442  0.15442  0.04947
E388  E   0.65442  0.15442  0.95053
E389  E   0.65442  0.34558  0.45053
E390  E   0.65442  0.34558  0.54947
E391  E   0.65442  0.45053  0.34558
E392  E   0.65442  0.45053  0.65442
E393  E   0.65442  0.54947  0.34558
E394  E   0.65442  0.54947  0.65442
E395  E   0.65442  0.65442  0.45053
E396  E   0.65442  0.65442  0.54947
E397  E   0.65442  0.84558  0.04947
E398  E   0.65442  0.84558  0.95053
E399  E   0.65442  0.95053  0.15442
E400  E   0.65442  0.95053  0.84558
E401  E   0.68941  0.00000  0.11944
E402  E   0.68941  0.00000  0.88056
E403  E   0.68941  0.08446  0.08446
E404  E   0.68941  0.08446  0.91554
E405  E   0.68941  0.11944  0.00000
E406  E   0.68941  0.38056  0.50000
E407  E   0.68941  0.41554  0.41554
E408  E   0.68941  0.41554  0.58446
E409  E   0.68941  0.50000  0.38056
E410  E   0.68941  0.50000  0.61944
E411  E   0.68941  0.58446  0.41554
E412  E   0.68941  0.58446  0.58446
E413  E   0.68941  0.61944  0.50000
E414  E   0.68941  0.88056  0.00000
E415  E   0.68941  0.91554  0.08446
E416  E   0.68941  0.91554  0.91554
E417  E   0.71502  0.00000  0.21502
E418  E   0.71502  0.00000  0.28498
E419  E   0.71502  0.00000  0.71502
E420  E   0.71502  0.00000  0.78498
E421  E   0.71502  0.21502  0.00000
E422  E   0.71502  0.21502  0.50000
E423  E   0.71502  0.28498  0.00000
E424  E   0.71502  0.28498  0.50000
E425  E   0.71502  0.50000  0.21502
E426  E   0.71502  0.50000  0.28498
E427  E   0.71502  0.50000  0.71502
E428  E   0.71502  0.50000  0.78498
E429  E   0.71502  0.71502  0.00000
E430  E   0.71502  0.71502  0.50000
E431  E   0.71502  0.78498  0.00000
E432  E   0.71502  0.78498  0.50000
E433  E   0.71970  0.02474  0.14974
E434  E   0.71970  0.02474  0.85026
E435  E   0.71970  0.14974  0.02474
E436  E   0.71970  0.14974  0.97526
E437  E   0.71970  0.35026  0.47526
E438  E   0.71970  0.35026  0.52474
E439  E   0.71970  0.47526  0.35026
E440  E   0.71970  0.47526  0.64974
E441  E   0.71970  0.52474  0.35026
E442  E   0.71970  0.52474  0.64974
E443  E   0.71970  0.64974  0.47526
E444  E   0.71970  0.64974  0.52474
E445  E   0.71970  0.85026  0.02474
E446  E   0.71970  0.85026  0.97526
E447  E   0.71970  0.97526  0.14974
E448  E   0.71970  0.97526  0.85026
E449  E   0.78030  0.02474  0.35026
E450  E   0.78030  0.02474  0.64974
E451  E   0.78030  0.14974  0.47526
E452  E   0.78030  0.14974  0.52474
E453  E   0.78030  0.35026  0.02474
E454  E   0.78030  0.35026  0.97526
E455  E   0.78030  0.47526  0.14974
E456  E   0.78030  0.47526  0.85026
E457  E   0.78030  0.52474  0.14974
E458  E   0.78030  0.52474  0.85026
E459  E   0.78030  0.64974  0.02474
E460  E   0.78030  0.64974  0.97526
E461  E   0.78030  0.85026  0.47526
E462  E   0.78030  0.85026  0.52474
E463  E   0.78030  0.97526  0.35026
E464  E   0.78030  0.97526  0.64974
E465  E   0.78498  0.00000  0.21502
E466  E   0.78498  0.00000  0.28498
E467  E   0.78498  0.00000  0.71502
E468  E   0.78498  0.00000  0.78498
E469  E   0.78498  0.21502  0.00000
E470  E   0.78498  0.21502  0.50000
E471  E   0.78498  0.28498  0.00000
E472  E   0.78498  0.28498  0.50000
E473  E   0.78498  0.50000  0.21502
E474  E   0.78498  0.50000  0.28498
E475  E   0.78498  0.50000  0.71502
E476  E   0.78498  0.50000  0.78498
E477  E   0.78498  0.71502  0.00000
E478  E   0.78498  0.71502  0.50000
E479  E   0.78498  0.78498  0.00000
E480  E   0.78498  0.78498  0.50000
E481  E   0.81059  0.00000  0.38056
E482  E   0.81059  0.00000  0.61944
E483  E   0.81059  0.08446  0.41554
E484  E   0.81059  0.08446  0.58446
E485  E   0.81059  0.11944  0.50000
E486  E   0.81059  0.38056  0.00000
E487  E   0.81059  0.41554  0.08446
E488  E   0.81059  0.41554  0.91554
E489  E   0.81059  0.50000  0.11944
E490  E   0.81059  0.50000  0.88056
E491  E   0.81059  0.58446  0.08446
E492  E   0.81059  0.58446  0.91554
E493  E   0.81059  0.61944  0.00000
E494  E   0.81059  0.88056  0.50000
E495  E   0.81059  0.91554  0.41554
E496  E   0.81059  0.91554  0.58446
E497  E   0.84558  0.04947  0.34558
E498  E   0.84558  0.04947  0.65442
E499  E   0.84558  0.15442  0.45053
E500  E   0.84558  0.15442  0.54947
E501  E   0.84558  0.34558  0.04947
E502  E   0.84558  0.34558  0.95053
E503  E   0.84558  0.45053  0.15442
E504  E   0.84558  0.45053  0.84558
E505  E   0.84558  0.54947  0.15442
E506  E   0.84558  0.54947  0.84558
E507  E   0.84558  0.65442  0.04947
E508  E   0.84558  0.65442  0.95053
E509  E   0.84558  0.84558  0.45053
E510  E   0.84558  0.84558  0.54947
E511  E   0.84558  0.95053  0.34558
E512  E   0.84558  0.95053  0.65442
E513  E   0.85026  0.02474  0.28030
E514  E   0.85026  0.02474  0.71970
E515  E   0.85026  0.21970  0.47526
E516  E   0.85026  0.21970  0.52474
E517  E   0.85026  0.28030  0.02474
E518  E   0.85026  0.28030  0.97526
E519  E   0.85026  0.47526  0.21970
E520  E   0.85026  0.47526  0.78030
E521  E   0.85026  0.52474  0.21970
E522  E   0.85026  0.52474  0.78030
E523  E   0.85026  0.71970  0.02474
E524  E   0.85026  0.71970  0.97526
E525  E   0.85026  0.78030  0.47526
E526  E   0.85026  0.78030  0.52474
E527  E   0.85026  0.97526  0.28030
E528  E   0.85026  0.97526  0.71970
E529  E   0.88056  0.00000  0.31059
E530  E   0.88056  0.00000  0.68941
E531  E   0.88056  0.18941  0.50000
E532  E   0.88056  0.31059  0.00000
E533  E   0.88056  0.50000  0.18941
E534  E   0.88056  0.50000  0.81059
E535  E   0.88056  0.68941  0.00000
E536  E   0.88056  0.81059  0.50000
E537  E   0.91554  0.08446  0.31059
E538  E   0.91554  0.08446  0.68941
E539  E   0.91554  0.18941  0.41554
E540  E   0.91554  0.18941  0.58446
E541  E   0.91554  0.31059  0.08446
E542  E   0.91554  0.31059  0.91554
E543  E   0.91554  0.41554  0.18941
E544  E   0.91554  0.41554  0.81059
E545  E   0.91554  0.58446  0.18941
E546  E   0.91554  0.58446  0.81059
E547  E   0.91554  0.68941  0.08446
E548  E   0.91554  0.68941  0.91554
E549  E   0.91554  0.81059  0.41554
E550  E   0.91554  0.81059  0.58446
E551  E   0.91554  0.91554  0.31059
E552  E   0.91554  0.91554  0.68941
E553  E   0.95053  0.15442  0.34558
E554  E   0.95053  0.15442  0.65442
E555  E   0.95053  0.34558  0.15442
E556  E   0.95053  0.34558  0.84558
E557  E   0.95053  0.65442  0.15442
E558  E   0.95053  0.65442  0.84558
E559  E   0.95053  0.84558  0.34558
E560  E   0.95053  0.84558  0.65442
E561  E   0.97526  0.14974  0.28030
E562  E   0.97526  0.14974  0.71970
E563  E   0.97526  0.21970  0.35026
E564  E   0.97526  0.21970  0.64974
E565  E   0.97526  0.28030  0.14974
E566  E   0.97526  0.28030  0.85026
E567  E   0.97526  0.35026  0.21970
E568  E   0.97526  0.35026  0.78030
E569  E   0.97526  0.64974  0.21970
E570  E   0.97526  0.64974  0.78030
E571  E   0.97526  0.71970  0.14974
E572  E   0.97526  0.71970  0.85026
E573  E   0.97526  0.78030  0.35026
E574  E   0.97526  0.78030  0.64974
E575  E   0.97526  0.85026  0.28030
E576  E   0.97526  0.85026  0.71970
loop_
