data_ftt_Fm-3m  hall_number: 523, V_con: 4, EC_con: 4
_audit_creation_date              2025-03-05
_audit_creation_method            'MOFbuilder_1.0'
_symmetry_space_group_name_H-M    'P1'
_symmetry_Int_Tables_number       1
_symmetry_cell_setting            triclinic
loop_
_symmetry_equiv_pos_as_xyz
  x,y,z
_cell_length_a                    10.10634
_cell_length_b                    10.10634
_cell_length_c                    10.10634
_cell_angle_alpha                 90.0
_cell_angle_beta                  90.0
_cell_angle_gamma                 90.0
loop_
_atom_site_label
_atom_site_type_symbol
_atom_site_fract_x
_atom_site_fract_y
_atom_site_fract_z
V1    V   0.04947  0.11944  0.31059
V2    V   0.04947  0.11944  0.68941
V3    V   0.04947  0.18941  0.38056
V4    V   0.04947  0.18941  0.61944
V5    V   0.04947  0.31059  0.11944
V6    V   0.04947  0.31059  0.88056
V7    V   0.04947  0.38056  0.18941
V8    V   0.04947  0.38056  0.81059
V9    V   0.04947  0.61944  0.18941
V10   V   0.04947  0.61944  0.81059
V11   V   0.04947  0.68941  0.11944
V12   V   0.04947  0.68941  0.88056
V13   V   0.04947  0.81059  0.38056
V14   V   0.04947  0.81059  0.61944
V15   V   0.04947  0.88056  0.31059
V16   V   0.04947  0.88056  0.68941
V17   V   0.11944  0.04947  0.31059
V18   V   0.11944  0.04947  0.68941
V19   V   0.11944  0.18941  0.45053
V20   V   0.11944  0.18941  0.54947
V21   V   0.11944  0.31059  0.04947
V22   V   0.11944  0.31059  0.95053
V23   V   0.11944  0.45053  0.18941
V24   V   0.11944  0.45053  0.81059
V25   V   0.11944  0.54947  0.18941
V26   V   0.11944  0.54947  0.81059
V27   V   0.11944  0.68941  0.04947
V28   V   0.11944  0.68941  0.95053
V29   V   0.11944  0.81059  0.45053
V30   V   0.11944  0.81059  0.54947
V31   V   0.11944  0.95053  0.31059
V32   V   0.11944  0.95053  0.68941
V33   V   0.18941  0.04947  0.38056
V34   V   0.18941  0.04947  0.61944
V35   V   0.18941  0.11944  0.45053
V36   V   0.18941  0.11944  0.54947
V37   V   0.18941  0.38056  0.04947
V38   V   0.18941  0.38056  0.95053
V39   V   0.18941  0.45053  0.11944
V40   V   0.18941  0.45053  0.88056
V41   V   0.18941  0.54947  0.11944
V42   V   0.18941  0.54947  0.88056
V43   V   0.18941  0.61944  0.04947
V44   V   0.18941  0.61944  0.95053
V45   V   0.18941  0.88056  0.45053
V46   V   0.18941  0.88056  0.54947
V47   V   0.18941  0.95053  0.38056
V48   V   0.18941  0.95053  0.61944
V49   V   0.31059  0.04947  0.11944
V50   V   0.31059  0.04947  0.88056
V51   V   0.31059  0.11944  0.04947
V52   V   0.31059  0.11944  0.95053
V53   V   0.31059  0.38056  0.45053
V54   V   0.31059  0.38056  0.54947
V55   V   0.31059  0.45053  0.38056
V56   V   0.31059  0.45053  0.61944
V57   V   0.31059  0.54947  0.38056
V58   V   0.31059  0.54947  0.61944
V59   V   0.31059  0.61944  0.45053
V60   V   0.31059  0.61944  0.54947
V61   V   0.31059  0.88056  0.04947
V62   V   0.31059  0.88056  0.95053
V63   V   0.31059  0.95053  0.11944
V64   V   0.31059  0.95053  0.88056
V65   V   0.38056  0.04947  0.18941
V66   V   0.38056  0.04947  0.81059
V67   V   0.38056  0.18941  0.04947
V68   V   0.38056  0.18941  0.95053
V69   V   0.38056  0.31059  0.45053
V70   V   0.38056  0.31059  0.54947
V71   V   0.38056  0.45053  0.31059
V72   V   0.38056  0.45053  0.68941
V73   V   0.38056  0.54947  0.31059
V74   V   0.38056  0.54947  0.68941
V75   V   0.38056  0.68941  0.45053
V76   V   0.38056  0.68941  0.54947
V77   V   0.38056  0.81059  0.04947
V78   V   0.38056  0.81059  0.95053
V79   V   0.38056  0.95053  0.18941
V80   V   0.38056  0.95053  0.81059
V81   V   0.45053  0.11944  0.18941
V82   V   0.45053  0.11944  0.81059
V83   V   0.45053  0.18941  0.11944
V84   V   0.45053  0.18941  0.88056
V85   V   0.45053  0.31059  0.38056
V86   V   0.45053  0.31059  0.61944
V87   V   0.45053  0.38056  0.31059
V88   V   0.45053  0.38056  0.68941
V89   V   0.45053  0.61944  0.31059
V90   V   0.45053  0.61944  0.68941
V91   V   0.45053  0.68941  0.38056
V92   V   0.45053  0.68941  0.61944
V93   V   0.45053  0.81059  0.11944
V94   V   0.45053  0.81059  0.88056
V95   V   0.45053  0.88056  0.18941
V96   V   0.45053  0.88056  0.81059
V97   V   0.54947  0.11944  0.18941
V98   V   0.54947  0.11944  0.81059
V99   V   0.54947  0.18941  0.11944
V100  V   0.54947  0.18941  0.88056
V101  V   0.54947  0.31059  0.38056
V102  V   0.54947  0.31059  0.61944
V103  V   0.54947  0.38056  0.31059
V104  V   0.54947  0.38056  0.68941
V105  V   0.54947  0.61944  0.31059
V106  V   0.54947  0.61944  0.68941
V107  V   0.54947  0.68941  0.38056
V108  V   0.54947  0.68941  0.61944
V109  V   0.54947  0.81059  0.11944
V110  V   0.54947  0.81059  0.88056
V111  V   0.54947  0.88056  0.18941
V112  V   0.54947  0.88056  0.81059
V113  V   0.61944  0.04947  0.18941
V114  V   0.61944  0.04947  0.81059
V115  V   0.61944  0.18941  0.04947
V116  V   0.61944  0.18941  0.95053
V117  V   0.61944  0.31059  0.45053
V118  V   0.61944  0.31059  0.54947
V119  V   0.61944  0.45053  0.31059
V120  V   0.61944  0.45053  0.68941
V121  V   0.61944  0.54947  0.31059
V122  V   0.61944  0.54947  0.68941
V123  V   0.61944  0.68941  0.45053
V124  V   0.61944  0.68941  0.54947
V125  V   0.61944  0.81059  0.04947
V126  V   0.61944  0.81059  0.95053
V127  V   0.61944  0.95053  0.18941
V128  V   0.61944  0.95053  0.81059
V129  V   0.68941  0.04947  0.11944
V130  V   0.68941  0.04947  0.88056
V131  V   0.68941  0.11944  0.04947
V132  V   0.68941  0.11944  0.95053
V133  V   0.68941  0.38056  0.45053
V134  V   0.68941  0.38056  0.54947
V135  V   0.68941  0.45053  0.38056
V136  V   0.68941  0.45053  0.61944
V137  V   0.68941  0.54947  0.38056
V138  V   0.68941  0.54947  0.61944
V139  V   0.68941  0.61944  0.45053
V140  V   0.68941  0.61944  0.54947
V141  V   0.68941  0.88056  0.04947
V142  V   0.68941  0.88056  0.95053
V143  V   0.68941  0.95053  0.11944
V144  V   0.68941  0.95053  0.88056
V145  V   0.81059  0.04947  0.38056
V146  V   0.81059  0.04947  0.61944
V147  V   0.81059  0.11944  0.45053
V148  V   0.81059  0.11944  0.54947
V149  V   0.81059  0.38056  0.04947
V150  V   0.81059  0.38056  0.95053
V151  V   0.81059  0.45053  0.11944
V152  V   0.81059  0.45053  0.88056
V153  V   0.81059  0.54947  0.11944
V154  V   0.81059  0.54947  0.88056
V155  V   0.81059  0.61944  0.04947
V156  V   0.81059  0.61944  0.95053
V157  V   0.81059  0.88056  0.45053
V158  V   0.81059  0.88056  0.54947
V159  V   0.81059  0.95053  0.38056
V160  V   0.81059  0.95053  0.61944
V161  V   0.88056  0.04947  0.31059
V162  V   0.88056  0.04947  0.68941
V163  V   0.88056  0.18941  0.45053
V164  V   0.88056  0.18941  0.54947
V165  V   0.88056  0.31059  0.04947
V166  V   0.88056  0.31059  0.95053
V167  V   0.88056  0.45053  0.18941
V168  V   0.88056  0.45053  0.81059
V169  V   0.88056  0.54947  0.18941
V170  V   0.88056  0.54947  0.81059
V171  V   0.88056  0.68941  0.04947
V172  V   0.88056  0.68941  0.95053
V173  V   0.88056  0.81059  0.45053
V174  V   0.88056  0.81059  0.54947
V175  V   0.88056  0.95053  0.31059
V176  V   0.88056  0.95053  0.68941
V177  V   0.95053  0.11944  0.31059
V178  V   0.95053  0.11944  0.68941
V179  V   0.95053  0.18941  0.38056
V180  V   0.95053  0.18941  0.61944
V181  V   0.95053  0.31059  0.11944
V182  V   0.95053  0.31059  0.88056
V183  V   0.95053  0.38056  0.18941
V184  V   0.95053  0.38056  0.81059
V185  V   0.95053  0.61944  0.18941
V186  V   0.95053  0.61944  0.81059
V187  V   0.95053  0.68941  0.11944
V188  V   0.95053  0.68941  0.88056
V189  V   0.95053  0.81059  0.38056
V190  V   0.95053  0.81059  0.61944
V191  V   0.95053  0.88056  0.31059
V192  V   0.95053  0.88056  0.68941
EC1    EC   0.04947  0.21502  0.28498
EC2    EC   0.04947  0.21502  0.71502
EC3    EC   0.04947  0.28498  0.21502
EC4    EC   0.04947  0.28498  0.78498
EC5    EC   0.04947  0.71502  0.21502
EC6    EC   0.04947  0.71502  0.78498
EC7    EC   0.04947  0.78498  0.28498
EC8    EC   0.04947  0.78498  0.71502
EC9    EC   0.21502  0.04947  0.28498
EC10   EC   0.21502  0.04947  0.71502
EC11   EC   0.21502  0.21502  0.45053
EC12   EC   0.21502  0.21502  0.54947
EC13   EC   0.21502  0.28498  0.04947
EC14   EC   0.21502  0.28498  0.95053
EC15   EC   0.21502  0.45053  0.21502
EC16   EC   0.21502  0.45053  0.78498
EC17   EC   0.21502  0.54947  0.21502
EC18   EC   0.21502  0.54947  0.78498
EC19   EC   0.21502  0.71502  0.04947
EC20   EC   0.21502  0.71502  0.95053
EC21   EC   0.21502  0.78498  0.45053
EC22   EC   0.21502  0.78498  0.54947
EC23   EC   0.21502  0.95053  0.28498
EC24   EC   0.21502  0.95053  0.71502
EC25   EC   0.28498  0.04947  0.21502
EC26   EC   0.28498  0.04947  0.78498
EC27   EC   0.28498  0.21502  0.04947
EC28   EC   0.28498  0.21502  0.95053
EC29   EC   0.28498  0.28498  0.45053
EC30   EC   0.28498  0.28498  0.54947
EC31   EC   0.28498  0.45053  0.28498
EC32   EC   0.28498  0.45053  0.71502
EC33   EC   0.28498  0.54947  0.28498
EC34   EC   0.28498  0.54947  0.71502
EC35   EC   0.28498  0.71502  0.45053
EC36   EC   0.28498  0.71502  0.54947
EC37   EC   0.28498  0.78498  0.04947
EC38   EC   0.28498  0.78498  0.95053
EC39   EC   0.28498  0.95053  0.21502
EC40   EC   0.28498  0.95053  0.78498
EC41   EC   0.45053  0.21502  0.21502
EC42   EC   0.45053  0.21502  0.78498
EC43   EC   0.45053  0.28498  0.28498
EC44   EC   0.45053  0.28498  0.71502
EC45   EC   0.45053  0.71502  0.28498
EC46   EC   0.45053  0.71502  0.71502
EC47   EC   0.45053  0.78498  0.21502
EC48   EC   0.45053  0.78498  0.78498
EC49   EC   0.54947  0.21502  0.21502
EC50   EC   0.54947  0.21502  0.78498
EC51   EC   0.54947  0.28498  0.28498
EC52   EC   0.54947  0.28498  0.71502
EC53   EC   0.54947  0.71502  0.28498
EC54   EC   0.54947  0.71502  0.71502
EC55   EC   0.54947  0.78498  0.21502
EC56   EC   0.54947  0.78498  0.78498
EC57   EC   0.71502  0.04947  0.21502
EC58   EC   0.71502  0.04947  0.78498
EC59   EC   0.71502  0.21502  0.04947
EC60   EC   0.71502  0.21502  0.95053
EC61   EC   0.71502  0.28498  0.45053
EC62   EC   0.71502  0.28498  0.54947
EC63   EC   0.71502  0.45053  0.28498
EC64   EC   0.71502  0.45053  0.71502
EC65   EC   0.71502  0.54947  0.28498
EC66   EC   0.71502  0.54947  0.71502
EC67   EC   0.71502  0.71502  0.45053
EC68   EC   0.71502  0.71502  0.54947
EC69   EC   0.71502  0.78498  0.04947
EC70   EC   0.71502  0.78498  0.95053
EC71   EC   0.71502  0.95053  0.21502
EC72   EC   0.71502  0.95053  0.78498
EC73   EC   0.78498  0.04947  0.28498
EC74   EC   0.78498  0.04947  0.71502
EC75   EC   0.78498  0.21502  0.45053
EC76   EC   0.78498  0.21502  0.54947
EC77   EC   0.78498  0.28498  0.04947
EC78   EC   0.78498  0.28498  0.95053
EC79   EC   0.78498  0.45053  0.21502
EC80   EC   0.78498  0.45053  0.78498
EC81   EC   0.78498  0.54947  0.21502
EC82   EC   0.78498  0.54947  0.78498
EC83   EC   0.78498  0.71502  0.04947
EC84   EC   0.78498  0.71502  0.95053
EC85   EC   0.78498  0.78498  0.45053
EC86   EC   0.78498  0.78498  0.54947
EC87   EC   0.78498  0.95053  0.28498
EC88   EC   0.78498  0.95053  0.71502
EC89   EC   0.95053  0.21502  0.28498
EC90   EC   0.95053  0.21502  0.71502
EC91   EC   0.95053  0.28498  0.21502
EC92   EC   0.95053  0.28498  0.78498
EC93   EC   0.95053  0.71502  0.21502
EC94   EC   0.95053  0.71502  0.78498
EC95   EC   0.95053  0.78498  0.28498
EC96   EC   0.95053  0.78498  0.71502
E1    E   0.00000  0.11944  0.31059
E2    E   0.00000  0.11944  0.68941
E3    E   0.00000  0.18941  0.38056
E4    E   0.00000  0.18941  0.61944
E5    E   0.00000  0.21502  0.28498
E6    E   0.00000  0.21502  0.71502
E7    E   0.00000  0.28498  0.21502
E8    E   0.00000  0.28498  0.78498
E9    E   0.00000  0.31059  0.11944
E10   E   0.00000  0.31059  0.88056
E11   E   0.00000  0.38056  0.18941
E12   E   0.00000  0.38056  0.81059
E13   E   0.00000  0.61944  0.18941
E14   E   0.00000  0.61944  0.81059
E15   E   0.00000  0.68941  0.11944
E16   E   0.00000  0.68941  0.88056
E17   E   0.00000  0.71502  0.21502
E18   E   0.00000  0.71502  0.78498
E19   E   0.00000  0.78498  0.28498
E20   E   0.00000  0.78498  0.71502
E21   E   0.00000  0.81059  0.38056
E22   E   0.00000  0.81059  0.61944
E23   E   0.00000  0.88056  0.31059
E24   E   0.00000  0.88056  0.68941
E25   E   0.04947  0.15442  0.34558
E26   E   0.04947  0.15442  0.65442
E27   E   0.04947  0.16723  0.29779
E28   E   0.04947  0.16723  0.70221
E29   E   0.04947  0.20221  0.33277
E30   E   0.04947  0.20221  0.66723
E31   E   0.04947  0.25000  0.25000
E32   E   0.04947  0.25000  0.75000
E33   E   0.04947  0.29779  0.16723
E34   E   0.04947  0.29779  0.83277
E35   E   0.04947  0.33277  0.20221
E36   E   0.04947  0.33277  0.79779
E37   E   0.04947  0.34558  0.15442
E38   E   0.04947  0.34558  0.84558
E39   E   0.04947  0.65442  0.15442
E40   E   0.04947  0.65442  0.84558
E41   E   0.04947  0.66723  0.20221
E42   E   0.04947  0.66723  0.79779
E43   E   0.04947  0.70221  0.16723
E44   E   0.04947  0.70221  0.83277
E45   E   0.04947  0.75000  0.25000
E46   E   0.04947  0.75000  0.75000
E47   E   0.04947  0.79779  0.33277
E48   E   0.04947  0.79779  0.66723
E49   E   0.04947  0.83277  0.29779
E50   E   0.04947  0.83277  0.70221
E51   E   0.04947  0.84558  0.34558
E52   E   0.04947  0.84558  0.65442
E53   E   0.08446  0.08446  0.31059
E54   E   0.08446  0.08446  0.68941
E55   E   0.08446  0.18941  0.41554
E56   E   0.08446  0.18941  0.58446
E57   E   0.08446  0.31059  0.08446
E58   E   0.08446  0.31059  0.91554
E59   E   0.08446  0.41554  0.18941
E60   E   0.08446  0.41554  0.81059
E61   E   0.08446  0.58446  0.18941
E62   E   0.08446  0.58446  0.81059
E63   E   0.08446  0.68941  0.08446
E64   E   0.08446  0.68941  0.91554
E65   E   0.08446  0.81059  0.41554
E66   E   0.08446  0.81059  0.58446
E67   E   0.08446  0.91554  0.31059
E68   E   0.08446  0.91554  0.68941
E69   E   0.11944  0.00000  0.31059
E70   E   0.11944  0.00000  0.68941
E71   E   0.11944  0.18941  0.50000
E72   E   0.11944  0.31059  0.00000
E73   E   0.11944  0.50000  0.18941
E74   E   0.11944  0.50000  0.81059
E75   E   0.11944  0.68941  0.00000
E76   E   0.11944  0.81059  0.50000
E77   E   0.15442  0.04947  0.34558
E78   E   0.15442  0.04947  0.65442
E79   E   0.15442  0.15442  0.45053
E80   E   0.15442  0.15442  0.54947
E81   E   0.15442  0.34558  0.04947
E82   E   0.15442  0.34558  0.95053
E83   E   0.15442  0.45053  0.15442
E84   E   0.15442  0.45053  0.84558
E85   E   0.15442  0.54947  0.15442
E86   E   0.15442  0.54947  0.84558
E87   E   0.15442  0.65442  0.04947
E88   E   0.15442  0.65442  0.95053
E89   E   0.15442  0.84558  0.45053
E90   E   0.15442  0.84558  0.54947
E91   E   0.15442  0.95053  0.34558
E92   E   0.15442  0.95053  0.65442
E93   E   0.16723  0.04947  0.29779
E94   E   0.16723  0.04947  0.70221
E95   E   0.16723  0.20221  0.45053
E96   E   0.16723  0.20221  0.54947
E97   E   0.16723  0.29779  0.04947
E98   E   0.16723  0.29779  0.95053
E99   E   0.16723  0.45053  0.20221
E100  E   0.16723  0.45053  0.79779
E101  E   0.16723  0.54947  0.20221
E102  E   0.16723  0.54947  0.79779
E103  E   0.16723  0.70221  0.04947
E104  E   0.16723  0.70221  0.95053
E105  E   0.16723  0.79779  0.45053
E106  E   0.16723  0.79779  0.54947
E107  E   0.16723  0.95053  0.29779
E108  E   0.16723  0.95053  0.70221
E109  E   0.18941  0.00000  0.38056
E110  E   0.18941  0.00000  0.61944
E111  E   0.18941  0.08446  0.41554
E112  E   0.18941  0.08446  0.58446
E113  E   0.18941  0.11944  0.50000
E114  E   0.18941  0.38056  0.00000
E115  E   0.18941  0.41554  0.08446
E116  E   0.18941  0.41554  0.91554
E117  E   0.18941  0.50000  0.11944
E118  E   0.18941  0.50000  0.88056
E119  E   0.18941  0.58446  0.08446
E120  E   0.18941  0.58446  0.91554
E121  E   0.18941  0.61944  0.00000
E122  E   0.18941  0.88056  0.50000
E123  E   0.18941  0.91554  0.41554
E124  E   0.18941  0.91554  0.58446
E125  E   0.20221  0.04947  0.33277
E126  E   0.20221  0.04947  0.66723
E127  E   0.20221  0.16723  0.45053
E128  E   0.20221  0.16723  0.54947
E129  E   0.20221  0.33277  0.04947
E130  E   0.20221  0.33277  0.95053
E131  E   0.20221  0.45053  0.16723
E132  E   0.20221  0.45053  0.83277
E133  E   0.20221  0.54947  0.16723
E134  E   0.20221  0.54947  0.83277
E135  E   0.20221  0.66723  0.04947
E136  E   0.20221  0.66723  0.95053
E137  E   0.20221  0.83277  0.45053
E138  E   0.20221  0.83277  0.54947
E139  E   0.20221  0.95053  0.33277
E140  E   0.20221  0.95053  0.66723
E141  E   0.21502  0.00000  0.28498
E142  E   0.21502  0.00000  0.71502
E143  E   0.21502  0.21502  0.50000
E144  E   0.21502  0.28498  0.00000
E145  E   0.21502  0.50000  0.21502
E146  E   0.21502  0.50000  0.78498
E147  E   0.21502  0.71502  0.00000
E148  E   0.21502  0.78498  0.50000
E149  E   0.25000  0.04947  0.25000
E150  E   0.25000  0.04947  0.75000
E151  E   0.25000  0.25000  0.04947
E152  E   0.25000  0.25000  0.45053
E153  E   0.25000  0.25000  0.54947
E154  E   0.25000  0.25000  0.95053
E155  E   0.25000  0.45053  0.25000
E156  E   0.25000  0.45053  0.75000
E157  E   0.25000  0.54947  0.25000
E158  E   0.25000  0.54947  0.75000
E159  E   0.25000  0.75000  0.04947
E160  E   0.25000  0.75000  0.45053
E161  E   0.25000  0.75000  0.54947
E162  E   0.25000  0.75000  0.95053
E163  E   0.25000  0.95053  0.25000
E164  E   0.25000  0.95053  0.75000
E165  E   0.28498  0.00000  0.21502
E166  E   0.28498  0.00000  0.78498
E167  E   0.28498  0.21502  0.00000
E168  E   0.28498  0.28498  0.50000
E169  E   0.28498  0.50000  0.28498
E170  E   0.28498  0.50000  0.71502
E171  E   0.28498  0.71502  0.50000
E172  E   0.28498  0.78498  0.00000
E173  E   0.29779  0.04947  0.16723
E174  E   0.29779  0.04947  0.83277
E175  E   0.29779  0.16723  0.04947
E176  E   0.29779  0.16723  0.95053
E177  E   0.29779  0.33277  0.45053
E178  E   0.29779  0.33277  0.54947
E179  E   0.29779  0.45053  0.33277
E180  E   0.29779  0.45053  0.66723
E181  E   0.29779  0.54947  0.33277
E182  E   0.29779  0.54947  0.66723
E183  E   0.29779  0.66723  0.45053
E184  E   0.29779  0.66723  0.54947
E185  E   0.29779  0.83277  0.04947
E186  E   0.29779  0.83277  0.95053
E187  E   0.29779  0.95053  0.16723
E188  E   0.29779  0.95053  0.83277
E189  E   0.31059  0.00000  0.11944
E190  E   0.31059  0.00000  0.88056
E191  E   0.31059  0.08446  0.08446
E192  E   0.31059  0.08446  0.91554
E193  E   0.31059  0.11944  0.00000
E194  E   0.31059  0.38056  0.50000
E195  E   0.31059  0.41554  0.41554
E196  E   0.31059  0.41554  0.58446
E197  E   0.31059  0.50000  0.38056
E198  E   0.31059  0.50000  0.61944
E199  E   0.31059  0.58446  0.41554
E200  E   0.31059  0.58446  0.58446
E201  E   0.31059  0.61944  0.50000
E202  E   0.31059  0.88056  0.00000
E203  E   0.31059  0.91554  0.08446
E204  E   0.31059  0.91554  0.91554
E205  E   0.33277  0.04947  0.20221
E206  E   0.33277  0.04947  0.79779
E207  E   0.33277  0.20221  0.04947
E208  E   0.33277  0.20221  0.95053
E209  E   0.33277  0.29779  0.45053
E210  E   0.33277  0.29779  0.54947
E211  E   0.33277  0.45053  0.29779
E212  E   0.33277  0.45053  0.70221
E213  E   0.33277  0.54947  0.29779
E214  E   0.33277  0.54947  0.70221
E215  E   0.33277  0.70221  0.45053
E216  E   0.33277  0.70221  0.54947
E217  E   0.33277  0.79779  0.04947
E218  E   0.33277  0.79779  0.95053
E219  E   0.33277  0.95053  0.20221
E220  E   0.33277  0.95053  0.79779
E221  E   0.34558  0.04947  0.15442
E222  E   0.34558  0.04947  0.84558
E223  E   0.34558  0.15442  0.04947
E224  E   0.34558  0.15442  0.95053
E225  E   0.34558  0.34558  0.45053
E226  E   0.34558  0.34558  0.54947
E227  E   0.34558  0.45053  0.34558
E228  E   0.34558  0.45053  0.65442
E229  E   0.34558  0.54947  0.34558
E230  E   0.34558  0.54947  0.65442
E231  E   0.34558  0.65442  0.45053
E232  E   0.34558  0.65442  0.54947
E233  E   0.34558  0.84558  0.04947
E234  E   0.34558  0.84558  0.95053
E235  E   0.34558  0.95053  0.15442
E236  E   0.34558  0.95053  0.84558
E237  E   0.38056  0.00000  0.18941
E238  E   0.38056  0.00000  0.81059
E239  E   0.38056  0.18941  0.00000
E240  E   0.38056  0.31059  0.50000
E241  E   0.38056  0.50000  0.31059
E242  E   0.38056  0.50000  0.68941
E243  E   0.38056  0.68941  0.50000
E244  E   0.38056  0.81059  0.00000
E245  E   0.41554  0.08446  0.18941
E246  E   0.41554  0.08446  0.81059
E247  E   0.41554  0.18941  0.08446
E248  E   0.41554  0.18941  0.91554
E249  E   0.41554  0.31059  0.41554
E250  E   0.41554  0.31059  0.58446
E251  E   0.41554  0.41554  0.31059
E252  E   0.41554  0.41554  0.68941
E253  E   0.41554  0.58446  0.31059
E254  E   0.41554  0.58446  0.68941
E255  E   0.41554  0.68941  0.41554
E256  E   0.41554  0.68941  0.58446
E257  E   0.41554  0.81059  0.08446
E258  E   0.41554  0.81059  0.91554
E259  E   0.41554  0.91554  0.18941
E260  E   0.41554  0.91554  0.81059
E261  E   0.45053  0.15442  0.15442
E262  E   0.45053  0.15442  0.84558
E263  E   0.45053  0.16723  0.20221
E264  E   0.45053  0.16723  0.79779
E265  E   0.45053  0.20221  0.16723
E266  E   0.45053  0.20221  0.83277
E267  E   0.45053  0.25000  0.25000
E268  E   0.45053  0.25000  0.75000
E269  E   0.45053  0.29779  0.33277
E270  E   0.45053  0.29779  0.66723
E271  E   0.45053  0.33277  0.29779
E272  E   0.45053  0.33277  0.70221
E273  E   0.45053  0.34558  0.34558
E274  E   0.45053  0.34558  0.65442
E275  E   0.45053  0.65442  0.34558
E276  E   0.45053  0.65442  0.65442
E277  E   0.45053  0.66723  0.29779
E278  E   0.45053  0.66723  0.70221
E279  E   0.45053  0.70221  0.33277
E280  E   0.45053  0.70221  0.66723
E281  E   0.45053  0.75000  0.25000
E282  E   0.45053  0.75000  0.75000
E283  E   0.45053  0.79779  0.16723
E284  E   0.45053  0.79779  0.83277
E285  E   0.45053  0.83277  0.20221
E286  E   0.45053  0.83277  0.79779
E287  E   0.45053  0.84558  0.15442
E288  E   0.45053  0.84558  0.84558
E289  E   0.50000  0.11944  0.18941
E290  E   0.50000  0.11944  0.81059
E291  E   0.50000  0.18941  0.11944
E292  E   0.50000  0.18941  0.88056
E293  E   0.50000  0.21502  0.21502
E294  E   0.50000  0.21502  0.78498
E295  E   0.50000  0.28498  0.28498
E296  E   0.50000  0.28498  0.71502
E297  E   0.50000  0.31059  0.38056
E298  E   0.50000  0.31059  0.61944
E299  E   0.50000  0.38056  0.31059
E300  E   0.50000  0.38056  0.68941
E301  E   0.50000  0.61944  0.31059
E302  E   0.50000  0.61944  0.68941
E303  E   0.50000  0.68941  0.38056
E304  E   0.50000  0.68941  0.61944
E305  E   0.50000  0.71502  0.28498
E306  E   0.50000  0.71502  0.71502
E307  E   0.50000  0.78498  0.21502
E308  E   0.50000  0.78498  0.78498
E309  E   0.50000  0.81059  0.11944
E310  E   0.50000  0.81059  0.88056
E311  E   0.50000  0.88056  0.18941
E312  E   0.50000  0.88056  0.81059
E313  E   0.54947  0.15442  0.15442
E314  E   0.54947  0.15442  0.84558
E315  E   0.54947  0.16723  0.20221
E316  E   0.54947  0.16723  0.79779
E317  E   0.54947  0.20221  0.16723
E318  E   0.54947  0.20221  0.83277
E319  E   0.54947  0.25000  0.25000
E320  E   0.54947  0.25000  0.75000
E321  E   0.54947  0.29779  0.33277
E322  E   0.54947  0.29779  0.66723
E323  E   0.54947  0.33277  0.29779
E324  E   0.54947  0.33277  0.70221
E325  E   0.54947  0.34558  0.34558
E326  E   0.54947  0.34558  0.65442
E327  E   0.54947  0.65442  0.34558
E328  E   0.54947  0.65442  0.65442
E329  E   0.54947  0.66723  0.29779
E330  E   0.54947  0.66723  0.70221
E331  E   0.54947  0.70221  0.33277
E332  E   0.54947  0.70221  0.66723
E333  E   0.54947  0.75000  0.25000
E334  E   0.54947  0.75000  0.75000
E335  E   0.54947  0.79779  0.16723
E336  E   0.54947  0.79779  0.83277
E337  E   0.54947  0.83277  0.20221
E338  E   0.54947  0.83277  0.79779
E339  E   0.54947  0.84558  0.15442
E340  E   0.54947  0.84558  0.84558
E341  E   0.58446  0.08446  0.18941
E342  E   0.58446  0.08446  0.81059
E343  E   0.58446  0.18941  0.08446
E344  E   0.58446  0.18941  0.91554
E345  E   0.58446  0.31059  0.41554
E346  E   0.58446  0.31059  0.58446
E347  E   0.58446  0.41554  0.31059
E348  E   0.58446  0.41554  0.68941
E349  E   0.58446  0.58446  0.31059
E350  E   0.58446  0.58446  0.68941
E351  E   0.58446  0.68941  0.41554
E352  E   0.58446  0.68941  0.58446
E353  E   0.58446  0.81059  0.08446
E354  E   0.58446  0.81059  0.91554
E355  E   0.58446  0.91554  0.18941
E356  E   0.58446  0.91554  0.81059
E357  E   0.61944  0.00000  0.18941
E358  E   0.61944  0.00000  0.81059
E359  E   0.61944  0.18941  0.00000
E360  E   0.61944  0.31059  0.50000
E361  E   0.61944  0.50000  0.31059
E362  E   0.61944  0.50000  0.68941
E363  E   0.61944  0.68941  0.50000
E364  E   0.61944  0.81059  0.00000
E365  E   0.65442  0.04947  0.15442
E366  E   0.65442  0.04947  0.84558
E367  E   0.65442  0.15442  0.04947
E368  E   0.65442  0.15442  0.95053
E369  E   0.65442  0.34558  0.45053
E370  E   0.65442  0.34558  0.54947
E371  E   0.65442  0.45053  0.34558
E372  E   0.65442  0.45053  0.65442
E373  E   0.65442  0.54947  0.34558
E374  E   0.65442  0.54947  0.65442
E375  E   0.65442  0.65442  0.45053
E376  E   0.65442  0.65442  0.54947
E377  E   0.65442  0.84558  0.04947
E378  E   0.65442  0.84558  0.95053
E379  E   0.65442  0.95053  0.15442
E380  E   0.65442  0.95053  0.84558
E381  E   0.66723  0.04947  0.20221
E382  E   0.66723  0.04947  0.79779
E383  E   0.66723  0.20221  0.04947
E384  E   0.66723  0.20221  0.95053
E385  E   0.66723  0.29779  0.45053
E386  E   0.66723  0.29779  0.54947
E387  E   0.66723  0.45053  0.29779
E388  E   0.66723  0.45053  0.70221
E389  E   0.66723  0.54947  0.29779
E390  E   0.66723  0.54947  0.70221
E391  E   0.66723  0.70221  0.45053
E392  E   0.66723  0.70221  0.54947
E393  E   0.66723  0.79779  0.04947
E394  E   0.66723  0.79779  0.95053
E395  E   0.66723  0.95053  0.20221
E396  E   0.66723  0.95053  0.79779
E397  E   0.68941  0.00000  0.11944
E398  E   0.68941  0.00000  0.88056
E399  E   0.68941  0.08446  0.08446
E400  E   0.68941  0.08446  0.91554
E401  E   0.68941  0.11944  0.00000
E402  E   0.68941  0.38056  0.50000
E403  E   0.68941  0.41554  0.41554
E404  E   0.68941  0.41554  0.58446
E405  E   0.68941  0.50000  0.38056
E406  E   0.68941  0.50000  0.61944
E407  E   0.68941  0.58446  0.41554
E408  E   0.68941  0.58446  0.58446
E409  E   0.68941  0.61944  0.50000
E410  E   0.68941  0.88056  0.00000
E411  E   0.68941  0.91554  0.08446
E412  E   0.68941  0.91554  0.91554
E413  E   0.70221  0.04947  0.16723
E414  E   0.70221  0.04947  0.83277
E415  E   0.70221  0.16723  0.04947
E416  E   0.70221  0.16723  0.95053
E417  E   0.70221  0.33277  0.45053
E418  E   0.70221  0.33277  0.54947
E419  E   0.70221  0.45053  0.33277
E420  E   0.70221  0.45053  0.66723
E421  E   0.70221  0.54947  0.33277
E422  E   0.70221  0.54947  0.66723
E423  E   0.70221  0.66723  0.45053
E424  E   0.70221  0.66723  0.54947
E425  E   0.70221  0.83277  0.04947
E426  E   0.70221  0.83277  0.95053
E427  E   0.70221  0.95053  0.16723
E428  E   0.70221  0.95053  0.83277
E429  E   0.71502  0.00000  0.21502
E430  E   0.71502  0.00000  0.78498
E431  E   0.71502  0.21502  0.00000
E432  E   0.71502  0.28498  0.50000
E433  E   0.71502  0.50000  0.28498
E434  E   0.71502  0.50000  0.71502
E435  E   0.71502  0.71502  0.50000
E436  E   0.71502  0.78498  0.00000
E437  E   0.75000  0.04947  0.25000
E438  E   0.75000  0.04947  0.75000
E439  E   0.75000  0.25000  0.04947
E440  E   0.75000  0.25000  0.45053
E441  E   0.75000  0.25000  0.54947
E442  E   0.75000  0.25000  0.95053
E443  E   0.75000  0.45053  0.25000
E444  E   0.75000  0.45053  0.75000
E445  E   0.75000  0.54947  0.25000
E446  E   0.75000  0.54947  0.75000
E447  E   0.75000  0.75000  0.04947
E448  E   0.75000  0.75000  0.45053
E449  E   0.75000  0.75000  0.54947
E450  E   0.75000  0.75000  0.95053
E451  E   0.75000  0.95053  0.25000
E452  E   0.75000  0.95053  0.75000
E453  E   0.78498  0.00000  0.28498
E454  E   0.78498  0.00000  0.71502
E455  E   0.78498  0.21502  0.50000
E456  E   0.78498  0.28498  0.00000
E457  E   0.78498  0.50000  0.21502
E458  E   0.78498  0.50000  0.78498
E459  E   0.78498  0.71502  0.00000
E460  E   0.78498  0.78498  0.50000
E461  E   0.79779  0.04947  0.33277
E462  E   0.79779  0.04947  0.66723
E463  E   0.79779  0.16723  0.45053
E464  E   0.79779  0.16723  0.54947
E465  E   0.79779  0.33277  0.04947
E466  E   0.79779  0.33277  0.95053
E467  E   0.79779  0.45053  0.16723
E468  E   0.79779  0.45053  0.83277
E469  E   0.79779  0.54947  0.16723
E470  E   0.79779  0.54947  0.83277
E471  E   0.79779  0.66723  0.04947
E472  E   0.79779  0.66723  0.95053
E473  E   0.79779  0.83277  0.45053
E474  E   0.79779  0.83277  0.54947
E475  E   0.79779  0.95053  0.33277
E476  E   0.79779  0.95053  0.66723
E477  E   0.81059  0.00000  0.38056
E478  E   0.81059  0.00000  0.61944
E479  E   0.81059  0.08446  0.41554
E480  E   0.81059  0.08446  0.58446
E481  E   0.81059  0.11944  0.50000
E482  E   0.81059  0.38056  0.00000
E483  E   0.81059  0.41554  0.08446
E484  E   0.81059  0.41554  0.91554
E485  E   0.81059  0.50000  0.11944
E486  E   0.81059  0.50000  0.88056
E487  E   0.81059  0.58446  0.08446
E488  E   0.81059  0.58446  0.91554
E489  E   0.81059  0.61944  0.00000
E490  E   0.81059  0.88056  0.50000
E491  E   0.81059  0.91554  0.41554
E492  E   0.81059  0.91554  0.58446
E493  E   0.83277  0.04947  0.29779
E494  E   0.83277  0.04947  0.70221
E495  E   0.83277  0.20221  0.45053
E496  E   0.83277  0.20221  0.54947
E497  E   0.83277  0.29779  0.04947
E498  E   0.83277  0.29779  0.95053
E499  E   0.83277  0.45053  0.20221
E500  E   0.83277  0.45053  0.79779
E501  E   0.83277  0.54947  0.20221
E502  E   0.83277  0.54947  0.79779
E503  E   0.83277  0.70221  0.04947
E504  E   0.83277  0.70221  0.95053
E505  E   0.83277  0.79779  0.45053
E506  E   0.83277  0.79779  0.54947
E507  E   0.83277  0.95053  0.29779
E508  E   0.83277  0.95053  0.70221
E509  E   0.84558  0.04947  0.34558
E510  E   0.84558  0.04947  0.65442
E511  E   0.84558  0.15442  0.45053
E512  E   0.84558  0.15442  0.54947
E513  E   0.84558  0.34558  0.04947
E514  E   0.84558  0.34558  0.95053
E515  E   0.84558  0.45053  0.15442
E516  E   0.84558  0.45053  0.84558
E517  E   0.84558  0.54947  0.15442
E518  E   0.84558  0.54947  0.84558
E519  E   0.84558  0.65442  0.04947
E520  E   0.84558  0.65442  0.95053
E521  E   0.84558  0.84558  0.45053
E522  E   0.84558  0.84558  0.54947
E523  E   0.84558  0.95053  0.34558
E524  E   0.84558  0.95053  0.65442
E525  E   0.88056  0.00000  0.31059
E526  E   0.88056  0.00000  0.68941
E527  E   0.88056  0.18941  0.50000
E528  E   0.88056  0.31059  0.00000
E529  E   0.88056  0.50000  0.18941
E530  E   0.88056  0.50000  0.81059
E531  E   0.88056  0.68941  0.00000
E532  E   0.88056  0.81059  0.50000
E533  E   0.91554  0.08446  0.31059
E534  E   0.91554  0.08446  0.68941
E535  E   0.91554  0.18941  0.41554
E536  E   0.91554  0.18941  0.58446
E537  E   0.91554  0.31059  0.08446
E538  E   0.91554  0.31059  0.91554
E539  E   0.91554  0.41554  0.18941
E540  E   0.91554  0.41554  0.81059
E541  E   0.91554  0.58446  0.18941
E542  E   0.91554  0.58446  0.81059
E543  E   0.91554  0.68941  0.08446
E544  E   0.91554  0.68941  0.91554
E545  E   0.91554  0.81059  0.41554
E546  E   0.91554  0.81059  0.58446
E547  E   0.91554  0.91554  0.31059
E548  E   0.91554  0.91554  0.68941
E549  E   0.95053  0.15442  0.34558
E550  E   0.95053  0.15442  0.65442
E551  E   0.95053  0.16723  0.29779
E552  E   0.95053  0.16723  0.70221
E553  E   0.95053  0.20221  0.33277
E554  E   0.95053  0.20221  0.66723
E555  E   0.95053  0.25000  0.25000
E556  E   0.95053  0.25000  0.75000
E557  E   0.95053  0.29779  0.16723
E558  E   0.95053  0.29779  0.83277
E559  E   0.95053  0.33277  0.20221
E560  E   0.95053  0.33277  0.79779
E561  E   0.95053  0.34558  0.15442
E562  E   0.95053  0.34558  0.84558
E563  E   0.95053  0.65442  0.15442
E564  E   0.95053  0.65442  0.84558
E565  E   0.95053  0.66723  0.20221
E566  E   0.95053  0.66723  0.79779
E567  E   0.95053  0.70221  0.16723
E568  E   0.95053  0.70221  0.83277
E569  E   0.95053  0.75000  0.25000
E570  E   0.95053  0.75000  0.75000
E571  E   0.95053  0.79779  0.33277
E572  E   0.95053  0.79779  0.66723
E573  E   0.95053  0.83277  0.29779
E574  E   0.95053  0.83277  0.70221
E575  E   0.95053  0.84558  0.34558
E576  E   0.95053  0.84558  0.65442
loop_
