data_ftu_Fm-3m  hall_number: 523, V_con: 4, EC_con: 4
_audit_creation_date              2025-03-05
_audit_creation_method            'MOFbuilder_1.0'
_symmetry_space_group_name_H-M    'P1'
_symmetry_Int_Tables_number       1
_symmetry_cell_setting            triclinic
loop_
_symmetry_equiv_pos_as_xyz
  x,y,z
_cell_length_a                    90.7106
_cell_length_b                    90.7106
_cell_length_c                    90.7106
_cell_angle_alpha                 90.0
_cell_angle_beta                  90.0
_cell_angle_gamma                 90.0
loop_
_atom_site_label
_atom_site_type_symbol
_atom_site_fract_x
_atom_site_fract_y
_atom_site_fract_z
V1    V   0.05512  0.13307  0.21102
V2    V   0.05512  0.13307  0.78898
V3    V   0.05512  0.21102  0.13307
V4    V   0.05512  0.21102  0.86693
V5    V   0.05512  0.28898  0.36693
V6    V   0.05512  0.28898  0.63307
V7    V   0.05512  0.36693  0.28898
V8    V   0.05512  0.36693  0.71102
V9    V   0.05512  0.63307  0.28898
V10   V   0.05512  0.63307  0.71102
V11   V   0.05512  0.71102  0.36693
V12   V   0.05512  0.71102  0.63307
V13   V   0.05512  0.78898  0.13307
V14   V   0.05512  0.78898  0.86693
V15   V   0.05512  0.86693  0.21102
V16   V   0.05512  0.86693  0.78898
V17   V   0.13307  0.05512  0.21102
V18   V   0.13307  0.05512  0.78898
V19   V   0.13307  0.21102  0.05512
V20   V   0.13307  0.21102  0.94488
V21   V   0.13307  0.28898  0.44488
V22   V   0.13307  0.28898  0.55512
V23   V   0.13307  0.44488  0.28898
V24   V   0.13307  0.44488  0.71102
V25   V   0.13307  0.55512  0.28898
V26   V   0.13307  0.55512  0.71102
V27   V   0.13307  0.71102  0.44488
V28   V   0.13307  0.71102  0.55512
V29   V   0.13307  0.78898  0.05512
V30   V   0.13307  0.78898  0.94488
V31   V   0.13307  0.94488  0.21102
V32   V   0.13307  0.94488  0.78898
V33   V   0.21102  0.05512  0.13307
V34   V   0.21102  0.05512  0.86693
V35   V   0.21102  0.13307  0.05512
V36   V   0.21102  0.13307  0.94488
V37   V   0.21102  0.36693  0.44488
V38   V   0.21102  0.36693  0.55512
V39   V   0.21102  0.44488  0.36693
V40   V   0.21102  0.44488  0.63307
V41   V   0.21102  0.55512  0.36693
V42   V   0.21102  0.55512  0.63307
V43   V   0.21102  0.63307  0.44488
V44   V   0.21102  0.63307  0.55512
V45   V   0.21102  0.86693  0.05512
V46   V   0.21102  0.86693  0.94488
V47   V   0.21102  0.94488  0.13307
V48   V   0.21102  0.94488  0.86693
V49   V   0.28898  0.05512  0.36693
V50   V   0.28898  0.05512  0.63307
V51   V   0.28898  0.13307  0.44488
V52   V   0.28898  0.13307  0.55512
V53   V   0.28898  0.36693  0.05512
V54   V   0.28898  0.36693  0.94488
V55   V   0.28898  0.44488  0.13307
V56   V   0.28898  0.44488  0.86693
V57   V   0.28898  0.55512  0.13307
V58   V   0.28898  0.55512  0.86693
V59   V   0.28898  0.63307  0.05512
V60   V   0.28898  0.63307  0.94488
V61   V   0.28898  0.86693  0.44488
V62   V   0.28898  0.86693  0.55512
V63   V   0.28898  0.94488  0.36693
V64   V   0.28898  0.94488  0.63307
V65   V   0.36693  0.05512  0.28898
V66   V   0.36693  0.05512  0.71102
V67   V   0.36693  0.21102  0.44488
V68   V   0.36693  0.21102  0.55512
V69   V   0.36693  0.28898  0.05512
V70   V   0.36693  0.28898  0.94488
V71   V   0.36693  0.44488  0.21102
V72   V   0.36693  0.44488  0.78898
V73   V   0.36693  0.55512  0.21102
V74   V   0.36693  0.55512  0.78898
V75   V   0.36693  0.71102  0.05512
V76   V   0.36693  0.71102  0.94488
V77   V   0.36693  0.78898  0.44488
V78   V   0.36693  0.78898  0.55512
V79   V   0.36693  0.94488  0.28898
V80   V   0.36693  0.94488  0.71102
V81   V   0.44488  0.13307  0.28898
V82   V   0.44488  0.13307  0.71102
V83   V   0.44488  0.21102  0.36693
V84   V   0.44488  0.21102  0.63307
V85   V   0.44488  0.28898  0.13307
V86   V   0.44488  0.28898  0.86693
V87   V   0.44488  0.36693  0.21102
V88   V   0.44488  0.36693  0.78898
V89   V   0.44488  0.63307  0.21102
V90   V   0.44488  0.63307  0.78898
V91   V   0.44488  0.71102  0.13307
V92   V   0.44488  0.71102  0.86693
V93   V   0.44488  0.78898  0.36693
V94   V   0.44488  0.78898  0.63307
V95   V   0.44488  0.86693  0.28898
V96   V   0.44488  0.86693  0.71102
V97   V   0.55512  0.13307  0.28898
V98   V   0.55512  0.13307  0.71102
V99   V   0.55512  0.21102  0.36693
V100  V   0.55512  0.21102  0.63307
V101  V   0.55512  0.28898  0.13307
V102  V   0.55512  0.28898  0.86693
V103  V   0.55512  0.36693  0.21102
V104  V   0.55512  0.36693  0.78898
V105  V   0.55512  0.63307  0.21102
V106  V   0.55512  0.63307  0.78898
V107  V   0.55512  0.71102  0.13307
V108  V   0.55512  0.71102  0.86693
V109  V   0.55512  0.78898  0.36693
V110  V   0.55512  0.78898  0.63307
V111  V   0.55512  0.86693  0.28898
V112  V   0.55512  0.86693  0.71102
V113  V   0.63307  0.05512  0.28898
V114  V   0.63307  0.05512  0.71102
V115  V   0.63307  0.21102  0.44488
V116  V   0.63307  0.21102  0.55512
V117  V   0.63307  0.28898  0.05512
V118  V   0.63307  0.28898  0.94488
V119  V   0.63307  0.44488  0.21102
V120  V   0.63307  0.44488  0.78898
V121  V   0.63307  0.55512  0.21102
V122  V   0.63307  0.55512  0.78898
V123  V   0.63307  0.71102  0.05512
V124  V   0.63307  0.71102  0.94488
V125  V   0.63307  0.78898  0.44488
V126  V   0.63307  0.78898  0.55512
V127  V   0.63307  0.94488  0.28898
V128  V   0.63307  0.94488  0.71102
V129  V   0.71102  0.05512  0.36693
V130  V   0.71102  0.05512  0.63307
V131  V   0.71102  0.13307  0.44488
V132  V   0.71102  0.13307  0.55512
V133  V   0.71102  0.36693  0.05512
V134  V   0.71102  0.36693  0.94488
V135  V   0.71102  0.44488  0.13307
V136  V   0.71102  0.44488  0.86693
V137  V   0.71102  0.55512  0.13307
V138  V   0.71102  0.55512  0.86693
V139  V   0.71102  0.63307  0.05512
V140  V   0.71102  0.63307  0.94488
V141  V   0.71102  0.86693  0.44488
V142  V   0.71102  0.86693  0.55512
V143  V   0.71102  0.94488  0.36693
V144  V   0.71102  0.94488  0.63307
V145  V   0.78898  0.05512  0.13307
V146  V   0.78898  0.05512  0.86693
V147  V   0.78898  0.13307  0.05512
V148  V   0.78898  0.13307  0.94488
V149  V   0.78898  0.36693  0.44488
V150  V   0.78898  0.36693  0.55512
V151  V   0.78898  0.44488  0.36693
V152  V   0.78898  0.44488  0.63307
V153  V   0.78898  0.55512  0.36693
V154  V   0.78898  0.55512  0.63307
V155  V   0.78898  0.63307  0.44488
V156  V   0.78898  0.63307  0.55512
V157  V   0.78898  0.86693  0.05512
V158  V   0.78898  0.86693  0.94488
V159  V   0.78898  0.94488  0.13307
V160  V   0.78898  0.94488  0.86693
V161  V   0.86693  0.05512  0.21102
V162  V   0.86693  0.05512  0.78898
V163  V   0.86693  0.21102  0.05512
V164  V   0.86693  0.21102  0.94488
V165  V   0.86693  0.28898  0.44488
V166  V   0.86693  0.28898  0.55512
V167  V   0.86693  0.44488  0.28898
V168  V   0.86693  0.44488  0.71102
V169  V   0.86693  0.55512  0.28898
V170  V   0.86693  0.55512  0.71102
V171  V   0.86693  0.71102  0.44488
V172  V   0.86693  0.71102  0.55512
V173  V   0.86693  0.78898  0.05512
V174  V   0.86693  0.78898  0.94488
V175  V   0.86693  0.94488  0.21102
V176  V   0.86693  0.94488  0.78898
V177  V   0.94488  0.13307  0.21102
V178  V   0.94488  0.13307  0.78898
V179  V   0.94488  0.21102  0.13307
V180  V   0.94488  0.21102  0.86693
V181  V   0.94488  0.28898  0.36693
V182  V   0.94488  0.28898  0.63307
V183  V   0.94488  0.36693  0.28898
V184  V   0.94488  0.36693  0.71102
V185  V   0.94488  0.63307  0.28898
V186  V   0.94488  0.63307  0.71102
V187  V   0.94488  0.71102  0.36693
V188  V   0.94488  0.71102  0.63307
V189  V   0.94488  0.78898  0.13307
V190  V   0.94488  0.78898  0.86693
V191  V   0.94488  0.86693  0.21102
V192  V   0.94488  0.86693  0.78898
EC1    EC   0.05512  0.21102  0.28898
EC2    EC   0.05512  0.21102  0.71102
EC3    EC   0.05512  0.21102  0.28898
EC4    EC   0.05512  0.21102  0.71102
EC5    EC   0.05512  0.28898  0.21102
EC6    EC   0.05512  0.28898  0.21102
EC7    EC   0.05512  0.28898  0.78898
EC8    EC   0.05512  0.71102  0.21102
EC9    EC   0.05512  0.71102  0.21102
EC10   EC   0.05512  0.71102  0.78898
EC11   EC   0.05512  0.78898  0.28898
EC12   EC   0.05512  0.78898  0.71102
EC13   EC   0.21102  0.05512  0.28898
EC14   EC   0.21102  0.05512  0.71102
EC15   EC   0.21102  0.21102  0.44488
EC16   EC   0.21102  0.21102  0.55512
EC17   EC   0.21102  0.28898  0.05512
EC18   EC   0.21102  0.28898  0.94488
EC19   EC   0.21102  0.44488  0.21102
EC20   EC   0.21102  0.44488  0.78898
EC21   EC   0.21102  0.55512  0.21102
EC22   EC   0.21102  0.55512  0.78898
EC23   EC   0.21102  0.71102  0.05512
EC24   EC   0.21102  0.71102  0.94488
EC25   EC   0.21102  0.78898  0.44488
EC26   EC   0.21102  0.78898  0.55512
EC27   EC   0.21102  0.94488  0.28898
EC28   EC   0.21102  0.94488  0.71102
EC29   EC   0.21102  0.05512  0.28898
EC30   EC   0.21102  0.05512  0.71102
EC31   EC   0.21102  0.21102  0.44488
EC32   EC   0.21102  0.21102  0.55512
EC33   EC   0.21102  0.28898  0.05512
EC34   EC   0.21102  0.28898  0.94488
EC35   EC   0.21102  0.44488  0.21102
EC36   EC   0.21102  0.44488  0.78898
EC37   EC   0.21102  0.55512  0.21102
EC38   EC   0.21102  0.55512  0.78898
EC39   EC   0.21102  0.71102  0.05512
EC40   EC   0.21102  0.71102  0.94488
EC41   EC   0.21102  0.78898  0.44488
EC42   EC   0.21102  0.78898  0.55512
EC43   EC   0.21102  0.94488  0.28898
EC44   EC   0.21102  0.94488  0.71102
EC45   EC   0.28898  0.05512  0.21102
EC46   EC   0.28898  0.05512  0.21102
EC47   EC   0.28898  0.05512  0.78898
EC48   EC   0.28898  0.21102  0.05512
EC49   EC   0.28898  0.21102  0.94488
EC50   EC   0.28898  0.21102  0.05512
EC51   EC   0.28898  0.21102  0.94488
EC52   EC   0.28898  0.28898  0.44488
EC53   EC   0.28898  0.28898  0.55512
EC54   EC   0.28898  0.44488  0.28898
EC55   EC   0.28898  0.44488  0.71102
EC56   EC   0.28898  0.55512  0.28898
EC57   EC   0.28898  0.55512  0.71102
EC58   EC   0.28898  0.71102  0.44488
EC59   EC   0.28898  0.71102  0.55512
EC60   EC   0.28898  0.78898  0.05512
EC61   EC   0.28898  0.78898  0.94488
EC62   EC   0.28898  0.94488  0.21102
EC63   EC   0.28898  0.94488  0.21102
EC64   EC   0.28898  0.94488  0.78898
EC65   EC   0.44488  0.21102  0.21102
EC66   EC   0.44488  0.21102  0.78898
EC67   EC   0.44488  0.21102  0.21102
EC68   EC   0.44488  0.21102  0.78898
EC69   EC   0.44488  0.28898  0.28898
EC70   EC   0.44488  0.28898  0.71102
EC71   EC   0.44488  0.71102  0.28898
EC72   EC   0.44488  0.71102  0.71102
EC73   EC   0.44488  0.78898  0.21102
EC74   EC   0.44488  0.78898  0.21102
EC75   EC   0.44488  0.78898  0.78898
EC76   EC   0.55512  0.21102  0.21102
EC77   EC   0.55512  0.21102  0.78898
EC78   EC   0.55512  0.21102  0.21102
EC79   EC   0.55512  0.21102  0.78898
EC80   EC   0.55512  0.28898  0.28898
EC81   EC   0.55512  0.28898  0.71102
EC82   EC   0.55512  0.71102  0.28898
EC83   EC   0.55512  0.71102  0.71102
EC84   EC   0.55512  0.78898  0.21102
EC85   EC   0.55512  0.78898  0.21102
EC86   EC   0.55512  0.78898  0.78898
EC87   EC   0.71102  0.05512  0.21102
EC88   EC   0.71102  0.05512  0.21102
EC89   EC   0.71102  0.05512  0.78898
EC90   EC   0.71102  0.21102  0.05512
EC91   EC   0.71102  0.21102  0.94488
EC92   EC   0.71102  0.21102  0.05512
EC93   EC   0.71102  0.21102  0.94488
EC94   EC   0.71102  0.28898  0.44488
EC95   EC   0.71102  0.28898  0.55512
EC96   EC   0.71102  0.44488  0.28898
EC97   EC   0.71102  0.44488  0.71102
EC98   EC   0.71102  0.55512  0.28898
EC99   EC   0.71102  0.55512  0.71102
EC100  EC   0.71102  0.71102  0.44488
EC101  EC   0.71102  0.71102  0.55512
EC102  EC   0.71102  0.78898  0.05512
EC103  EC   0.71102  0.78898  0.94488
EC104  EC   0.71102  0.94488  0.21102
EC105  EC   0.71102  0.94488  0.21102
EC106  EC   0.71102  0.94488  0.78898
EC107  EC   0.78898  0.05512  0.28898
EC108  EC   0.78898  0.05512  0.71102
EC109  EC   0.78898  0.21102  0.44488
EC110  EC   0.78898  0.21102  0.55512
EC111  EC   0.78898  0.21102  0.44488
EC112  EC   0.78898  0.21102  0.55512
EC113  EC   0.78898  0.28898  0.05512
EC114  EC   0.78898  0.28898  0.94488
EC115  EC   0.78898  0.44488  0.21102
EC116  EC   0.78898  0.44488  0.21102
EC117  EC   0.78898  0.44488  0.78898
EC118  EC   0.78898  0.55512  0.21102
EC119  EC   0.78898  0.55512  0.21102
EC120  EC   0.78898  0.55512  0.78898
EC121  EC   0.78898  0.71102  0.05512
EC122  EC   0.78898  0.71102  0.94488
EC123  EC   0.78898  0.78898  0.44488
EC124  EC   0.78898  0.78898  0.55512
EC125  EC   0.78898  0.94488  0.28898
EC126  EC   0.78898  0.94488  0.71102
EC127  EC   0.94488  0.21102  0.28898
EC128  EC   0.94488  0.21102  0.71102
EC129  EC   0.94488  0.21102  0.28898
EC130  EC   0.94488  0.21102  0.71102
EC131  EC   0.94488  0.28898  0.21102
EC132  EC   0.94488  0.28898  0.21102
EC133  EC   0.94488  0.28898  0.78898
EC134  EC   0.94488  0.71102  0.21102
EC135  EC   0.94488  0.71102  0.21102
EC136  EC   0.94488  0.71102  0.78898
EC137  EC   0.94488  0.78898  0.28898
EC138  EC   0.94488  0.78898  0.71102
E1    E   0.00000  0.13307  0.21102
E2    E   0.00000  0.13307  0.78898
E3    E   0.00000  0.21102  0.28898
E4    E   0.00000  0.21102  0.71102
E5    E   0.00000  0.21102  0.13307
E6    E   0.00000  0.21102  0.28898
E7    E   0.00000  0.21102  0.71102
E8    E   0.00000  0.21102  0.86693
E9    E   0.00000  0.28898  0.21102
E10   E   0.00000  0.28898  0.21102
E11   E   0.00000  0.28898  0.36693
E12   E   0.00000  0.28898  0.63307
E13   E   0.00000  0.28898  0.78898
E14   E   0.00000  0.36693  0.28898
E15   E   0.00000  0.36693  0.71102
E16   E   0.00000  0.63307  0.28898
E17   E   0.00000  0.63307  0.71102
E18   E   0.00000  0.71102  0.21102
E19   E   0.00000  0.71102  0.21102
E20   E   0.00000  0.71102  0.36693
E21   E   0.00000  0.71102  0.63307
E22   E   0.00000  0.71102  0.78898
E23   E   0.00000  0.78898  0.13307
E24   E   0.00000  0.78898  0.28898
E25   E   0.00000  0.78898  0.71102
E26   E   0.00000  0.78898  0.86693
E27   E   0.00000  0.86693  0.21102
E28   E   0.00000  0.86693  0.78898
E29   E   0.05512  0.17205  0.17205
E30   E   0.05512  0.17205  0.25000
E31   E   0.05512  0.17205  0.75000
E32   E   0.05512  0.17205  0.82795
E33   E   0.05512  0.25000  0.17205
E34   E   0.05512  0.25000  0.25000
E35   E   0.05512  0.25000  0.32795
E36   E   0.05512  0.25000  0.67205
E37   E   0.05512  0.25000  0.75000
E38   E   0.05512  0.25000  0.82795
E39   E   0.05512  0.32795  0.25000
E40   E   0.05512  0.32795  0.32795
E41   E   0.05512  0.32795  0.67205
E42   E   0.05512  0.32795  0.75000
E43   E   0.05512  0.67205  0.25000
E44   E   0.05512  0.67205  0.32795
E45   E   0.05512  0.67205  0.67205
E46   E   0.05512  0.67205  0.75000
E47   E   0.05512  0.75000  0.17205
E48   E   0.05512  0.75000  0.25000
E49   E   0.05512  0.75000  0.32795
E50   E   0.05512  0.75000  0.67205
E51   E   0.05512  0.75000  0.75000
E52   E   0.05512  0.75000  0.82795
E53   E   0.05512  0.82795  0.17205
E54   E   0.05512  0.82795  0.25000
E55   E   0.05512  0.82795  0.75000
E56   E   0.05512  0.82795  0.82795
E57   E   0.09410  0.09410  0.21102
E58   E   0.09410  0.09410  0.78898
E59   E   0.09410  0.21102  0.09410
E60   E   0.09410  0.21102  0.90590
E61   E   0.09410  0.28898  0.40590
E62   E   0.09410  0.28898  0.59410
E63   E   0.09410  0.40590  0.28898
E64   E   0.09410  0.40590  0.71102
E65   E   0.09410  0.59410  0.28898
E66   E   0.09410  0.59410  0.71102
E67   E   0.09410  0.71102  0.40590
E68   E   0.09410  0.71102  0.59410
E69   E   0.09410  0.78898  0.09410
E70   E   0.09410  0.78898  0.90590
E71   E   0.09410  0.90590  0.21102
E72   E   0.09410  0.90590  0.78898
E73   E   0.13307  0.00000  0.21102
E74   E   0.13307  0.00000  0.78898
E75   E   0.13307  0.21102  0.00000
E76   E   0.13307  0.28898  0.50000
E77   E   0.13307  0.50000  0.28898
E78   E   0.13307  0.50000  0.71102
E79   E   0.13307  0.71102  0.50000
E80   E   0.13307  0.78898  0.00000
E81   E   0.17205  0.05512  0.17205
E82   E   0.17205  0.05512  0.25000
E83   E   0.17205  0.05512  0.75000
E84   E   0.17205  0.05512  0.82795
E85   E   0.17205  0.17205  0.05512
E86   E   0.17205  0.17205  0.94488
E87   E   0.17205  0.25000  0.05512
E88   E   0.17205  0.25000  0.44488
E89   E   0.17205  0.25000  0.55512
E90   E   0.17205  0.25000  0.94488
E91   E   0.17205  0.32795  0.44488
E92   E   0.17205  0.32795  0.55512
E93   E   0.17205  0.44488  0.25000
E94   E   0.17205  0.44488  0.32795
E95   E   0.17205  0.44488  0.67205
E96   E   0.17205  0.44488  0.75000
E97   E   0.17205  0.55512  0.25000
E98   E   0.17205  0.55512  0.32795
E99   E   0.17205  0.55512  0.67205
E100  E   0.17205  0.55512  0.75000
E101  E   0.17205  0.67205  0.44488
E102  E   0.17205  0.67205  0.55512
E103  E   0.17205  0.75000  0.05512
E104  E   0.17205  0.75000  0.44488
E105  E   0.17205  0.75000  0.55512
E106  E   0.17205  0.75000  0.94488
E107  E   0.17205  0.82795  0.05512
E108  E   0.17205  0.82795  0.94488
E109  E   0.17205  0.94488  0.17205
E110  E   0.17205  0.94488  0.25000
E111  E   0.17205  0.94488  0.75000
E112  E   0.17205  0.94488  0.82795
E113  E   0.21102  0.00000  0.28898
E114  E   0.21102  0.00000  0.71102
E115  E   0.21102  0.21102  0.50000
E116  E   0.21102  0.28898  0.00000
E117  E   0.21102  0.50000  0.21102
E118  E   0.21102  0.50000  0.78898
E119  E   0.21102  0.71102  0.00000
E120  E   0.21102  0.78898  0.50000
E121  E   0.21102  0.00000  0.13307
E122  E   0.21102  0.00000  0.28898
E123  E   0.21102  0.00000  0.71102
E124  E   0.21102  0.00000  0.86693
E125  E   0.21102  0.09410  0.09410
E126  E   0.21102  0.09410  0.90590
E127  E   0.21102  0.13307  0.00000
E128  E   0.21102  0.21102  0.50000
E129  E   0.21102  0.28898  0.00000
E130  E   0.21102  0.36693  0.50000
E131  E   0.21102  0.40590  0.40590
E132  E   0.21102  0.40590  0.59410
E133  E   0.21102  0.50000  0.21102
E134  E   0.21102  0.50000  0.36693
E135  E   0.21102  0.50000  0.63307
E136  E   0.21102  0.50000  0.78898
E137  E   0.21102  0.59410  0.40590
E138  E   0.21102  0.59410  0.59410
E139  E   0.21102  0.63307  0.50000
E140  E   0.21102  0.71102  0.00000
E141  E   0.21102  0.78898  0.50000
E142  E   0.21102  0.86693  0.00000
E143  E   0.21102  0.90590  0.09410
E144  E   0.21102  0.90590  0.90590
E145  E   0.25000  0.05512  0.17205
E146  E   0.25000  0.05512  0.25000
E147  E   0.25000  0.05512  0.32795
E148  E   0.25000  0.05512  0.67205
E149  E   0.25000  0.05512  0.75000
E150  E   0.25000  0.05512  0.82795
E151  E   0.25000  0.17205  0.05512
E152  E   0.25000  0.17205  0.44488
E153  E   0.25000  0.17205  0.55512
E154  E   0.25000  0.17205  0.94488
E155  E   0.25000  0.25000  0.05512
E156  E   0.25000  0.25000  0.44488
E157  E   0.25000  0.25000  0.55512
E158  E   0.25000  0.25000  0.94488
E159  E   0.25000  0.32795  0.05512
E160  E   0.25000  0.32795  0.44488
E161  E   0.25000  0.32795  0.55512
E162  E   0.25000  0.32795  0.94488
E163  E   0.25000  0.44488  0.17205
E164  E   0.25000  0.44488  0.25000
E165  E   0.25000  0.44488  0.32795
E166  E   0.25000  0.44488  0.67205
E167  E   0.25000  0.44488  0.75000
E168  E   0.25000  0.44488  0.82795
E169  E   0.25000  0.55512  0.17205
E170  E   0.25000  0.55512  0.25000
E171  E   0.25000  0.55512  0.32795
E172  E   0.25000  0.55512  0.67205
E173  E   0.25000  0.55512  0.75000
E174  E   0.25000  0.55512  0.82795
E175  E   0.25000  0.67205  0.05512
E176  E   0.25000  0.67205  0.44488
E177  E   0.25000  0.67205  0.55512
E178  E   0.25000  0.67205  0.94488
E179  E   0.25000  0.75000  0.05512
E180  E   0.25000  0.75000  0.44488
E181  E   0.25000  0.75000  0.55512
E182  E   0.25000  0.75000  0.94488
E183  E   0.25000  0.82795  0.05512
E184  E   0.25000  0.82795  0.44488
E185  E   0.25000  0.82795  0.55512
E186  E   0.25000  0.82795  0.94488
E187  E   0.25000  0.94488  0.17205
E188  E   0.25000  0.94488  0.25000
E189  E   0.25000  0.94488  0.32795
E190  E   0.25000  0.94488  0.67205
E191  E   0.25000  0.94488  0.75000
E192  E   0.25000  0.94488  0.82795
E193  E   0.28898  0.00000  0.21102
E194  E   0.28898  0.00000  0.21102
E195  E   0.28898  0.00000  0.36693
E196  E   0.28898  0.00000  0.63307
E197  E   0.28898  0.00000  0.78898
E198  E   0.28898  0.09410  0.40590
E199  E   0.28898  0.09410  0.59410
E200  E   0.28898  0.13307  0.50000
E201  E   0.28898  0.21102  0.00000
E202  E   0.28898  0.21102  0.00000
E203  E   0.28898  0.28898  0.50000
E204  E   0.28898  0.36693  0.00000
E205  E   0.28898  0.40590  0.09410
E206  E   0.28898  0.40590  0.90590
E207  E   0.28898  0.50000  0.13307
E208  E   0.28898  0.50000  0.28898
E209  E   0.28898  0.50000  0.71102
E210  E   0.28898  0.50000  0.86693
E211  E   0.28898  0.59410  0.09410
E212  E   0.28898  0.59410  0.90590
E213  E   0.28898  0.63307  0.00000
E214  E   0.28898  0.71102  0.50000
E215  E   0.28898  0.78898  0.00000
E216  E   0.28898  0.86693  0.50000
E217  E   0.28898  0.90590  0.40590
E218  E   0.28898  0.90590  0.59410
E219  E   0.32795  0.05512  0.25000
E220  E   0.32795  0.05512  0.32795
E221  E   0.32795  0.05512  0.67205
E222  E   0.32795  0.05512  0.75000
E223  E   0.32795  0.17205  0.44488
E224  E   0.32795  0.17205  0.55512
E225  E   0.32795  0.25000  0.05512
E226  E   0.32795  0.25000  0.44488
E227  E   0.32795  0.25000  0.55512
E228  E   0.32795  0.25000  0.94488
E229  E   0.32795  0.32795  0.05512
E230  E   0.32795  0.32795  0.94488
E231  E   0.32795  0.44488  0.17205
E232  E   0.32795  0.44488  0.25000
E233  E   0.32795  0.44488  0.75000
E234  E   0.32795  0.44488  0.82795
E235  E   0.32795  0.55512  0.17205
E236  E   0.32795  0.55512  0.25000
E237  E   0.32795  0.55512  0.75000
E238  E   0.32795  0.55512  0.82795
E239  E   0.32795  0.67205  0.05512
E240  E   0.32795  0.67205  0.94488
E241  E   0.32795  0.75000  0.05512
E242  E   0.32795  0.75000  0.44488
E243  E   0.32795  0.75000  0.55512
E244  E   0.32795  0.75000  0.94488
E245  E   0.32795  0.82795  0.44488
E246  E   0.32795  0.82795  0.55512
E247  E   0.32795  0.94488  0.25000
E248  E   0.32795  0.94488  0.32795
E249  E   0.32795  0.94488  0.67205
E250  E   0.32795  0.94488  0.75000
E251  E   0.36693  0.00000  0.28898
E252  E   0.36693  0.00000  0.71102
E253  E   0.36693  0.21102  0.50000
E254  E   0.36693  0.28898  0.00000
E255  E   0.36693  0.50000  0.21102
E256  E   0.36693  0.50000  0.78898
E257  E   0.36693  0.71102  0.00000
E258  E   0.36693  0.78898  0.50000
E259  E   0.40590  0.09410  0.28898
E260  E   0.40590  0.09410  0.71102
E261  E   0.40590  0.21102  0.40590
E262  E   0.40590  0.21102  0.59410
E263  E   0.40590  0.28898  0.09410
E264  E   0.40590  0.28898  0.90590
E265  E   0.40590  0.40590  0.21102
E266  E   0.40590  0.40590  0.78898
E267  E   0.40590  0.59410  0.21102
E268  E   0.40590  0.59410  0.78898
E269  E   0.40590  0.71102  0.09410
E270  E   0.40590  0.71102  0.90590
E271  E   0.40590  0.78898  0.40590
E272  E   0.40590  0.78898  0.59410
E273  E   0.40590  0.90590  0.28898
E274  E   0.40590  0.90590  0.71102
E275  E   0.44488  0.17205  0.25000
E276  E   0.44488  0.17205  0.32795
E277  E   0.44488  0.17205  0.67205
E278  E   0.44488  0.17205  0.75000
E279  E   0.44488  0.25000  0.17205
E280  E   0.44488  0.25000  0.25000
E281  E   0.44488  0.25000  0.32795
E282  E   0.44488  0.25000  0.67205
E283  E   0.44488  0.25000  0.75000
E284  E   0.44488  0.25000  0.82795
E285  E   0.44488  0.32795  0.17205
E286  E   0.44488  0.32795  0.25000
E287  E   0.44488  0.32795  0.75000
E288  E   0.44488  0.32795  0.82795
E289  E   0.44488  0.67205  0.17205
E290  E   0.44488  0.67205  0.25000
E291  E   0.44488  0.67205  0.75000
E292  E   0.44488  0.67205  0.82795
E293  E   0.44488  0.75000  0.17205
E294  E   0.44488  0.75000  0.25000
E295  E   0.44488  0.75000  0.32795
E296  E   0.44488  0.75000  0.67205
E297  E   0.44488  0.75000  0.75000
E298  E   0.44488  0.75000  0.82795
E299  E   0.44488  0.82795  0.25000
E300  E   0.44488  0.82795  0.32795
E301  E   0.44488  0.82795  0.67205
E302  E   0.44488  0.82795  0.75000
E303  E   0.50000  0.13307  0.28898
E304  E   0.50000  0.13307  0.71102
E305  E   0.50000  0.21102  0.21102
E306  E   0.50000  0.21102  0.78898
E307  E   0.50000  0.21102  0.21102
E308  E   0.50000  0.21102  0.36693
E309  E   0.50000  0.21102  0.63307
E310  E   0.50000  0.21102  0.78898
E311  E   0.50000  0.28898  0.13307
E312  E   0.50000  0.28898  0.28898
E313  E   0.50000  0.28898  0.71102
E314  E   0.50000  0.28898  0.86693
E315  E   0.50000  0.36693  0.21102
E316  E   0.50000  0.36693  0.78898
E317  E   0.50000  0.63307  0.21102
E318  E   0.50000  0.63307  0.78898
E319  E   0.50000  0.71102  0.13307
E320  E   0.50000  0.71102  0.28898
E321  E   0.50000  0.71102  0.71102
E322  E   0.50000  0.71102  0.86693
E323  E   0.50000  0.78898  0.21102
E324  E   0.50000  0.78898  0.21102
E325  E   0.50000  0.78898  0.36693
E326  E   0.50000  0.78898  0.63307
E327  E   0.50000  0.78898  0.78898
E328  E   0.50000  0.86693  0.28898
E329  E   0.50000  0.86693  0.71102
E330  E   0.55512  0.17205  0.25000
E331  E   0.55512  0.17205  0.32795
E332  E   0.55512  0.17205  0.67205
E333  E   0.55512  0.17205  0.75000
E334  E   0.55512  0.25000  0.17205
E335  E   0.55512  0.25000  0.25000
E336  E   0.55512  0.25000  0.32795
E337  E   0.55512  0.25000  0.67205
E338  E   0.55512  0.25000  0.75000
E339  E   0.55512  0.25000  0.82795
E340  E   0.55512  0.32795  0.17205
E341  E   0.55512  0.32795  0.25000
E342  E   0.55512  0.32795  0.75000
E343  E   0.55512  0.32795  0.82795
E344  E   0.55512  0.67205  0.17205
E345  E   0.55512  0.67205  0.25000
E346  E   0.55512  0.67205  0.75000
E347  E   0.55512  0.67205  0.82795
E348  E   0.55512  0.75000  0.17205
E349  E   0.55512  0.75000  0.25000
E350  E   0.55512  0.75000  0.32795
E351  E   0.55512  0.75000  0.67205
E352  E   0.55512  0.75000  0.75000
E353  E   0.55512  0.75000  0.82795
E354  E   0.55512  0.82795  0.25000
E355  E   0.55512  0.82795  0.32795
E356  E   0.55512  0.82795  0.67205
E357  E   0.55512  0.82795  0.75000
E358  E   0.59410  0.09410  0.28898
E359  E   0.59410  0.09410  0.71102
E360  E   0.59410  0.21102  0.40590
E361  E   0.59410  0.21102  0.59410
E362  E   0.59410  0.28898  0.09410
E363  E   0.59410  0.28898  0.90590
E364  E   0.59410  0.40590  0.21102
E365  E   0.59410  0.40590  0.78898
E366  E   0.59410  0.59410  0.21102
E367  E   0.59410  0.59410  0.78898
E368  E   0.59410  0.71102  0.09410
E369  E   0.59410  0.71102  0.90590
E370  E   0.59410  0.78898  0.40590
E371  E   0.59410  0.78898  0.59410
E372  E   0.59410  0.90590  0.28898
E373  E   0.59410  0.90590  0.71102
E374  E   0.63307  0.00000  0.28898
E375  E   0.63307  0.00000  0.71102
E376  E   0.63307  0.21102  0.50000
E377  E   0.63307  0.28898  0.00000
E378  E   0.63307  0.50000  0.21102
E379  E   0.63307  0.50000  0.78898
E380  E   0.63307  0.71102  0.00000
E381  E   0.63307  0.78898  0.50000
E382  E   0.67205  0.05512  0.25000
E383  E   0.67205  0.05512  0.32795
E384  E   0.67205  0.05512  0.67205
E385  E   0.67205  0.05512  0.75000
E386  E   0.67205  0.17205  0.44488
E387  E   0.67205  0.17205  0.55512
E388  E   0.67205  0.25000  0.05512
E389  E   0.67205  0.25000  0.44488
E390  E   0.67205  0.25000  0.55512
E391  E   0.67205  0.25000  0.94488
E392  E   0.67205  0.32795  0.05512
E393  E   0.67205  0.32795  0.94488
E394  E   0.67205  0.44488  0.17205
E395  E   0.67205  0.44488  0.25000
E396  E   0.67205  0.44488  0.75000
E397  E   0.67205  0.44488  0.82795
E398  E   0.67205  0.55512  0.17205
E399  E   0.67205  0.55512  0.25000
E400  E   0.67205  0.55512  0.75000
E401  E   0.67205  0.55512  0.82795
E402  E   0.67205  0.67205  0.05512
E403  E   0.67205  0.67205  0.94488
E404  E   0.67205  0.75000  0.05512
E405  E   0.67205  0.75000  0.44488
E406  E   0.67205  0.75000  0.55512
E407  E   0.67205  0.75000  0.94488
E408  E   0.67205  0.82795  0.44488
E409  E   0.67205  0.82795  0.55512
E410  E   0.67205  0.94488  0.25000
E411  E   0.67205  0.94488  0.32795
E412  E   0.67205  0.94488  0.67205
E413  E   0.67205  0.94488  0.75000
E414  E   0.71102  0.00000  0.21102
E415  E   0.71102  0.00000  0.21102
E416  E   0.71102  0.00000  0.36693
E417  E   0.71102  0.00000  0.63307
E418  E   0.71102  0.00000  0.78898
E419  E   0.71102  0.09410  0.40590
E420  E   0.71102  0.09410  0.59410
E421  E   0.71102  0.13307  0.50000
E422  E   0.71102  0.21102  0.00000
E423  E   0.71102  0.21102  0.00000
E424  E   0.71102  0.28898  0.50000
E425  E   0.71102  0.36693  0.00000
E426  E   0.71102  0.40590  0.09410
E427  E   0.71102  0.40590  0.90590
E428  E   0.71102  0.50000  0.13307
E429  E   0.71102  0.50000  0.28898
E430  E   0.71102  0.50000  0.71102
E431  E   0.71102  0.50000  0.86693
E432  E   0.71102  0.59410  0.09410
E433  E   0.71102  0.59410  0.90590
E434  E   0.71102  0.63307  0.00000
E435  E   0.71102  0.71102  0.50000
E436  E   0.71102  0.78898  0.00000
E437  E   0.71102  0.86693  0.50000
E438  E   0.71102  0.90590  0.40590
E439  E   0.71102  0.90590  0.59410
E440  E   0.75000  0.05512  0.17205
E441  E   0.75000  0.05512  0.25000
E442  E   0.75000  0.05512  0.32795
E443  E   0.75000  0.05512  0.67205
E444  E   0.75000  0.05512  0.75000
E445  E   0.75000  0.05512  0.82795
E446  E   0.75000  0.17205  0.05512
E447  E   0.75000  0.17205  0.44488
E448  E   0.75000  0.17205  0.55512
E449  E   0.75000  0.17205  0.94488
E450  E   0.75000  0.25000  0.05512
E451  E   0.75000  0.25000  0.44488
E452  E   0.75000  0.25000  0.55512
E453  E   0.75000  0.25000  0.94488
E454  E   0.75000  0.32795  0.05512
E455  E   0.75000  0.32795  0.44488
E456  E   0.75000  0.32795  0.55512
E457  E   0.75000  0.32795  0.94488
E458  E   0.75000  0.44488  0.17205
E459  E   0.75000  0.44488  0.25000
E460  E   0.75000  0.44488  0.32795
E461  E   0.75000  0.44488  0.67205
E462  E   0.75000  0.44488  0.75000
E463  E   0.75000  0.44488  0.82795
E464  E   0.75000  0.55512  0.17205
E465  E   0.75000  0.55512  0.25000
E466  E   0.75000  0.55512  0.32795
E467  E   0.75000  0.55512  0.67205
E468  E   0.75000  0.55512  0.75000
E469  E   0.75000  0.55512  0.82795
E470  E   0.75000  0.67205  0.05512
E471  E   0.75000  0.67205  0.44488
E472  E   0.75000  0.67205  0.55512
E473  E   0.75000  0.67205  0.94488
E474  E   0.75000  0.75000  0.05512
E475  E   0.75000  0.75000  0.44488
E476  E   0.75000  0.75000  0.55512
E477  E   0.75000  0.75000  0.94488
E478  E   0.75000  0.82795  0.05512
E479  E   0.75000  0.82795  0.44488
E480  E   0.75000  0.82795  0.55512
E481  E   0.75000  0.82795  0.94488
E482  E   0.75000  0.94488  0.17205
E483  E   0.75000  0.94488  0.25000
E484  E   0.75000  0.94488  0.32795
E485  E   0.75000  0.94488  0.67205
E486  E   0.75000  0.94488  0.75000
E487  E   0.75000  0.94488  0.82795
E488  E   0.78898  0.00000  0.13307
E489  E   0.78898  0.00000  0.28898
E490  E   0.78898  0.00000  0.71102
E491  E   0.78898  0.00000  0.86693
E492  E   0.78898  0.09410  0.09410
E493  E   0.78898  0.09410  0.90590
E494  E   0.78898  0.13307  0.00000
E495  E   0.78898  0.21102  0.50000
E496  E   0.78898  0.21102  0.50000
E497  E   0.78898  0.28898  0.00000
E498  E   0.78898  0.36693  0.50000
E499  E   0.78898  0.40590  0.40590
E500  E   0.78898  0.40590  0.59410
E501  E   0.78898  0.50000  0.21102
E502  E   0.78898  0.50000  0.21102
E503  E   0.78898  0.50000  0.36693
E504  E   0.78898  0.50000  0.63307
E505  E   0.78898  0.50000  0.78898
E506  E   0.78898  0.59410  0.40590
E507  E   0.78898  0.59410  0.59410
E508  E   0.78898  0.63307  0.50000
E509  E   0.78898  0.71102  0.00000
E510  E   0.78898  0.78898  0.50000
E511  E   0.78898  0.86693  0.00000
E512  E   0.78898  0.90590  0.09410
E513  E   0.78898  0.90590  0.90590
E514  E   0.82795  0.05512  0.17205
E515  E   0.82795  0.05512  0.25000
E516  E   0.82795  0.05512  0.75000
E517  E   0.82795  0.05512  0.82795
E518  E   0.82795  0.17205  0.05512
E519  E   0.82795  0.17205  0.94488
E520  E   0.82795  0.25000  0.05512
E521  E   0.82795  0.25000  0.44488
E522  E   0.82795  0.25000  0.55512
E523  E   0.82795  0.25000  0.94488
E524  E   0.82795  0.32795  0.44488
E525  E   0.82795  0.32795  0.55512
E526  E   0.82795  0.44488  0.25000
E527  E   0.82795  0.44488  0.32795
E528  E   0.82795  0.44488  0.67205
E529  E   0.82795  0.44488  0.75000
E530  E   0.82795  0.55512  0.25000
E531  E   0.82795  0.55512  0.32795
E532  E   0.82795  0.55512  0.67205
E533  E   0.82795  0.55512  0.75000
E534  E   0.82795  0.67205  0.44488
E535  E   0.82795  0.67205  0.55512
E536  E   0.82795  0.75000  0.05512
E537  E   0.82795  0.75000  0.44488
E538  E   0.82795  0.75000  0.55512
E539  E   0.82795  0.75000  0.94488
E540  E   0.82795  0.82795  0.05512
E541  E   0.82795  0.82795  0.94488
E542  E   0.82795  0.94488  0.17205
E543  E   0.82795  0.94488  0.25000
E544  E   0.82795  0.94488  0.75000
E545  E   0.82795  0.94488  0.82795
E546  E   0.86693  0.00000  0.21102
E547  E   0.86693  0.00000  0.78898
E548  E   0.86693  0.21102  0.00000
E549  E   0.86693  0.28898  0.50000
E550  E   0.86693  0.50000  0.28898
E551  E   0.86693  0.50000  0.71102
E552  E   0.86693  0.71102  0.50000
E553  E   0.86693  0.78898  0.00000
E554  E   0.90590  0.09410  0.21102
E555  E   0.90590  0.09410  0.78898
E556  E   0.90590  0.21102  0.09410
E557  E   0.90590  0.21102  0.90590
E558  E   0.90590  0.28898  0.40590
E559  E   0.90590  0.28898  0.59410
E560  E   0.90590  0.40590  0.28898
E561  E   0.90590  0.40590  0.71102
E562  E   0.90590  0.59410  0.28898
E563  E   0.90590  0.59410  0.71102
E564  E   0.90590  0.71102  0.40590
E565  E   0.90590  0.71102  0.59410
E566  E   0.90590  0.78898  0.09410
E567  E   0.90590  0.78898  0.90590
E568  E   0.90590  0.90590  0.21102
E569  E   0.90590  0.90590  0.78898
E570  E   0.94488  0.17205  0.17205
E571  E   0.94488  0.17205  0.25000
E572  E   0.94488  0.17205  0.75000
E573  E   0.94488  0.17205  0.82795
E574  E   0.94488  0.25000  0.17205
E575  E   0.94488  0.25000  0.25000
E576  E   0.94488  0.25000  0.32795
E577  E   0.94488  0.25000  0.67205
E578  E   0.94488  0.25000  0.75000
E579  E   0.94488  0.25000  0.82795
E580  E   0.94488  0.32795  0.25000
E581  E   0.94488  0.32795  0.32795
E582  E   0.94488  0.32795  0.67205
E583  E   0.94488  0.32795  0.75000
E584  E   0.94488  0.67205  0.25000
E585  E   0.94488  0.67205  0.32795
E586  E   0.94488  0.67205  0.67205
E587  E   0.94488  0.67205  0.75000
E588  E   0.94488  0.75000  0.17205
E589  E   0.94488  0.75000  0.25000
E590  E   0.94488  0.75000  0.32795
E591  E   0.94488  0.75000  0.67205
E592  E   0.94488  0.75000  0.75000
E593  E   0.94488  0.75000  0.82795
E594  E   0.94488  0.82795  0.17205
E595  E   0.94488  0.82795  0.25000
E596  E   0.94488  0.82795  0.75000
E597  E   0.94488  0.82795  0.82795
loop_
