data_ftx_Fd-3c:2  hall_number: 528, V_con: 4, EC_con: 4
_audit_creation_date              2025-03-05
_audit_creation_method            'MOFbuilder_1.0'
_symmetry_space_group_name_H-M    'P1'
_symmetry_Int_Tables_number       1
_symmetry_cell_setting            triclinic
loop_
_symmetry_equiv_pos_as_xyz
  x,y,z
_cell_length_a                    10.14926
_cell_length_b                    10.14926
_cell_length_c                    10.14926
_cell_angle_alpha                 90.0
_cell_angle_beta                  90.0
_cell_angle_gamma                 90.0
loop_
_atom_site_label
_atom_site_type_symbol
_atom_site_fract_x
_atom_site_fract_y
_atom_site_fract_z
V1    V   0.03006  0.12203  0.92722
V2    V   0.03006  0.12797  0.32278
V3    V   0.03006  0.32278  0.62797
V4    V   0.03006  0.42722  0.12203
V5    V   0.03006  0.62203  0.42722
V6    V   0.03006  0.62797  0.82278
V7    V   0.03006  0.82278  0.12797
V8    V   0.03006  0.92722  0.62203
V9    V   0.07278  0.28006  0.37203
V10   V   0.07278  0.37203  0.78006
V11   V   0.07278  0.37797  0.96994
V12   V   0.07278  0.46994  0.37797
V13   V   0.07278  0.78006  0.87203
V14   V   0.07278  0.87203  0.28006
V15   V   0.07278  0.87797  0.46994
V16   V   0.07278  0.96994  0.87797
V17   V   0.12203  0.03006  0.42722
V18   V   0.12203  0.21994  0.82278
V19   V   0.12203  0.32278  0.21994
V20   V   0.12203  0.42722  0.53006
V21   V   0.12203  0.53006  0.92722
V22   V   0.12203  0.71994  0.32278
V23   V   0.12203  0.82278  0.71994
V24   V   0.12203  0.92722  0.03006
V25   V   0.12797  0.03006  0.82278
V26   V   0.12797  0.21994  0.42722
V27   V   0.12797  0.32278  0.03006
V28   V   0.12797  0.42722  0.71994
V29   V   0.12797  0.53006  0.32278
V30   V   0.12797  0.71994  0.92722
V31   V   0.12797  0.82278  0.53006
V32   V   0.12797  0.92722  0.21994
V33   V   0.17722  0.28006  0.87797
V34   V   0.17722  0.37203  0.46994
V35   V   0.17722  0.37797  0.28006
V36   V   0.17722  0.46994  0.87203
V37   V   0.17722  0.78006  0.37797
V38   V   0.17722  0.87203  0.96994
V39   V   0.17722  0.87797  0.78006
V40   V   0.17722  0.96994  0.37203
V41   V   0.21994  0.12203  0.32278
V42   V   0.21994  0.12797  0.92722
V43   V   0.21994  0.32278  0.62203
V44   V   0.21994  0.42722  0.12797
V45   V   0.21994  0.62203  0.82278
V46   V   0.21994  0.62797  0.42722
V47   V   0.21994  0.82278  0.12203
V48   V   0.21994  0.92722  0.62797
V49   V   0.28006  0.07278  0.87203
V50   V   0.28006  0.17722  0.37797
V51   V   0.28006  0.37203  0.07278
V52   V   0.28006  0.37797  0.67722
V53   V   0.28006  0.57278  0.37203
V54   V   0.28006  0.67722  0.87797
V55   V   0.28006  0.87203  0.57278
V56   V   0.28006  0.87797  0.17722
V57   V   0.32278  0.03006  0.12797
V58   V   0.32278  0.12203  0.71994
V59   V   0.32278  0.12797  0.53006
V60   V   0.32278  0.21994  0.12203
V61   V   0.32278  0.53006  0.62797
V62   V   0.32278  0.62203  0.21994
V63   V   0.32278  0.62797  0.03006
V64   V   0.32278  0.71994  0.62203
V65   V   0.37203  0.07278  0.28006
V66   V   0.37203  0.17722  0.96994
V67   V   0.37203  0.28006  0.57278
V68   V   0.37203  0.46994  0.17722
V69   V   0.37203  0.57278  0.78006
V70   V   0.37203  0.67722  0.46994
V71   V   0.37203  0.78006  0.07278
V72   V   0.37203  0.96994  0.67722
V73   V   0.37797  0.07278  0.46994
V74   V   0.37797  0.17722  0.78006
V75   V   0.37797  0.28006  0.17722
V76   V   0.37797  0.46994  0.57278
V77   V   0.37797  0.57278  0.96994
V78   V   0.37797  0.67722  0.28006
V79   V   0.37797  0.78006  0.67722
V80   V   0.37797  0.96994  0.07278
V81   V   0.42722  0.03006  0.62203
V82   V   0.42722  0.12203  0.03006
V83   V   0.42722  0.12797  0.21994
V84   V   0.42722  0.21994  0.62797
V85   V   0.42722  0.53006  0.12203
V86   V   0.42722  0.62203  0.53006
V87   V   0.42722  0.62797  0.71994
V88   V   0.42722  0.71994  0.12797
V89   V   0.46994  0.07278  0.87797
V90   V   0.46994  0.17722  0.37203
V91   V   0.46994  0.37203  0.67722
V92   V   0.46994  0.37797  0.07278
V93   V   0.46994  0.57278  0.37797
V94   V   0.46994  0.67722  0.87203
V95   V   0.46994  0.87203  0.17722
V96   V   0.46994  0.87797  0.57278
V97   V   0.53006  0.12203  0.42722
V98   V   0.53006  0.12797  0.82278
V99   V   0.53006  0.32278  0.12797
V100  V   0.53006  0.42722  0.62203
V101  V   0.53006  0.62203  0.92722
V102  V   0.53006  0.62797  0.32278
V103  V   0.53006  0.82278  0.62797
V104  V   0.53006  0.92722  0.12203
V105  V   0.57278  0.28006  0.87203
V106  V   0.57278  0.37203  0.28006
V107  V   0.57278  0.37797  0.46994
V108  V   0.57278  0.46994  0.87797
V109  V   0.57278  0.78006  0.37203
V110  V   0.57278  0.87203  0.78006
V111  V   0.57278  0.87797  0.96994
V112  V   0.57278  0.96994  0.37797
V113  V   0.62203  0.03006  0.92722
V114  V   0.62203  0.21994  0.32278
V115  V   0.62203  0.32278  0.71994
V116  V   0.62203  0.42722  0.03006
V117  V   0.62203  0.53006  0.42722
V118  V   0.62203  0.71994  0.82278
V119  V   0.62203  0.82278  0.21994
V120  V   0.62203  0.92722  0.53006
V121  V   0.62797  0.03006  0.32278
V122  V   0.62797  0.21994  0.92722
V123  V   0.62797  0.32278  0.53006
V124  V   0.62797  0.42722  0.21994
V125  V   0.62797  0.53006  0.82278
V126  V   0.62797  0.71994  0.42722
V127  V   0.62797  0.82278  0.03006
V128  V   0.62797  0.92722  0.71994
V129  V   0.67722  0.28006  0.37797
V130  V   0.67722  0.37203  0.96994
V131  V   0.67722  0.37797  0.78006
V132  V   0.67722  0.46994  0.37203
V133  V   0.67722  0.78006  0.87797
V134  V   0.67722  0.87203  0.46994
V135  V   0.67722  0.87797  0.28006
V136  V   0.67722  0.96994  0.87203
V137  V   0.71994  0.12203  0.82278
V138  V   0.71994  0.12797  0.42722
V139  V   0.71994  0.32278  0.12203
V140  V   0.71994  0.42722  0.62797
V141  V   0.71994  0.62203  0.32278
V142  V   0.71994  0.62797  0.92722
V143  V   0.71994  0.82278  0.62203
V144  V   0.71994  0.92722  0.12797
V145  V   0.78006  0.07278  0.37203
V146  V   0.78006  0.17722  0.87797
V147  V   0.78006  0.37203  0.57278
V148  V   0.78006  0.37797  0.17722
V149  V   0.78006  0.57278  0.87203
V150  V   0.78006  0.67722  0.37797
V151  V   0.78006  0.87203  0.07278
V152  V   0.78006  0.87797  0.67722
V153  V   0.82278  0.03006  0.62797
V154  V   0.82278  0.12203  0.21994
V155  V   0.82278  0.12797  0.03006
V156  V   0.82278  0.21994  0.62203
V157  V   0.82278  0.53006  0.12797
V158  V   0.82278  0.62203  0.71994
V159  V   0.82278  0.62797  0.53006
V160  V   0.82278  0.71994  0.12203
V161  V   0.87203  0.07278  0.78006
V162  V   0.87203  0.17722  0.46994
V163  V   0.87203  0.28006  0.07278
V164  V   0.87203  0.46994  0.67722
V165  V   0.87203  0.57278  0.28006
V166  V   0.87203  0.67722  0.96994
V167  V   0.87203  0.78006  0.57278
V168  V   0.87203  0.96994  0.17722
V169  V   0.87797  0.07278  0.96994
V170  V   0.87797  0.17722  0.28006
V171  V   0.87797  0.28006  0.67722
V172  V   0.87797  0.46994  0.07278
V173  V   0.87797  0.57278  0.46994
V174  V   0.87797  0.67722  0.78006
V175  V   0.87797  0.78006  0.17722
V176  V   0.87797  0.96994  0.57278
V177  V   0.92722  0.03006  0.12203
V178  V   0.92722  0.12203  0.53006
V179  V   0.92722  0.12797  0.71994
V180  V   0.92722  0.21994  0.12797
V181  V   0.92722  0.53006  0.62203
V182  V   0.92722  0.62203  0.03006
V183  V   0.92722  0.62797  0.21994
V184  V   0.92722  0.71994  0.62797
V185  V   0.96994  0.07278  0.37797
V186  V   0.96994  0.17722  0.87203
V187  V   0.96994  0.37203  0.17722
V188  V   0.96994  0.37797  0.57278
V189  V   0.96994  0.57278  0.87797
V190  V   0.96994  0.67722  0.37203
V191  V   0.96994  0.87203  0.67722
V192  V   0.96994  0.87797  0.07278
EC1    EC   0.03841  0.05863  0.85226
EC2    EC   0.03841  0.19137  0.39774
EC3    EC   0.03841  0.35226  0.05863
EC4    EC   0.03841  0.39774  0.69137
EC5    EC   0.03841  0.55863  0.35226
EC6    EC   0.03841  0.69137  0.89774
EC7    EC   0.03841  0.85226  0.55863
EC8    EC   0.03841  0.89774  0.19137
EC9    EC   0.05863  0.03841  0.35226
EC10   EC   0.05863  0.21159  0.89774
EC11   EC   0.05863  0.35226  0.53841
EC12   EC   0.05863  0.39774  0.21159
EC13   EC   0.05863  0.53841  0.85226
EC14   EC   0.05863  0.71159  0.39774
EC15   EC   0.05863  0.85226  0.03841
EC16   EC   0.05863  0.89774  0.71159
EC17   EC   0.10226  0.28841  0.94137
EC18   EC   0.10226  0.30863  0.46159
EC19   EC   0.10226  0.44137  0.28841
EC20   EC   0.10226  0.46159  0.80863
EC21   EC   0.10226  0.78841  0.44137
EC22   EC   0.10226  0.80863  0.96159
EC23   EC   0.10226  0.94137  0.78841
EC24   EC   0.10226  0.96159  0.30863
EC25   EC   0.14774  0.28841  0.30863
EC26   EC   0.14774  0.30863  0.78841
EC27   EC   0.14774  0.44137  0.96159
EC28   EC   0.14774  0.46159  0.44137
EC29   EC   0.14774  0.78841  0.80863
EC30   EC   0.14774  0.80863  0.28841
EC31   EC   0.14774  0.94137  0.46159
EC32   EC   0.14774  0.96159  0.94137
EC33   EC   0.19137  0.03841  0.89774
EC34   EC   0.19137  0.21159  0.35226
EC35   EC   0.19137  0.35226  0.71159
EC36   EC   0.19137  0.39774  0.03841
EC37   EC   0.19137  0.53841  0.39774
EC38   EC   0.19137  0.71159  0.85226
EC39   EC   0.19137  0.85226  0.21159
EC40   EC   0.19137  0.89774  0.53841
EC41   EC   0.21159  0.05863  0.39774
EC42   EC   0.21159  0.19137  0.85226
EC43   EC   0.21159  0.35226  0.19137
EC44   EC   0.21159  0.39774  0.55863
EC45   EC   0.21159  0.55863  0.89774
EC46   EC   0.21159  0.69137  0.35226
EC47   EC   0.21159  0.85226  0.69137
EC48   EC   0.21159  0.89774  0.05863
EC49   EC   0.28841  0.10226  0.44137
EC50   EC   0.28841  0.14774  0.80863
EC51   EC   0.28841  0.30863  0.14774
EC52   EC   0.28841  0.44137  0.60226
EC53   EC   0.28841  0.60226  0.94137
EC54   EC   0.28841  0.64774  0.30863
EC55   EC   0.28841  0.80863  0.64774
EC56   EC   0.28841  0.94137  0.10226
EC57   EC   0.30863  0.10226  0.96159
EC58   EC   0.30863  0.14774  0.28841
EC59   EC   0.30863  0.28841  0.64774
EC60   EC   0.30863  0.46159  0.10226
EC61   EC   0.30863  0.60226  0.46159
EC62   EC   0.30863  0.64774  0.78841
EC63   EC   0.30863  0.78841  0.14774
EC64   EC   0.30863  0.96159  0.60226
EC65   EC   0.35226  0.03841  0.55863
EC66   EC   0.35226  0.05863  0.03841
EC67   EC   0.35226  0.19137  0.21159
EC68   EC   0.35226  0.21159  0.69137
EC69   EC   0.35226  0.53841  0.05863
EC70   EC   0.35226  0.55863  0.53841
EC71   EC   0.35226  0.69137  0.71159
EC72   EC   0.35226  0.71159  0.19137
EC73   EC   0.39774  0.03841  0.19137
EC74   EC   0.39774  0.05863  0.71159
EC75   EC   0.39774  0.19137  0.53841
EC76   EC   0.39774  0.21159  0.05863
EC77   EC   0.39774  0.53841  0.69137
EC78   EC   0.39774  0.55863  0.21159
EC79   EC   0.39774  0.69137  0.03841
EC80   EC   0.39774  0.71159  0.55863
EC81   EC   0.44137  0.10226  0.78841
EC82   EC   0.44137  0.14774  0.46159
EC83   EC   0.44137  0.28841  0.10226
EC84   EC   0.44137  0.46159  0.64774
EC85   EC   0.44137  0.60226  0.28841
EC86   EC   0.44137  0.64774  0.96159
EC87   EC   0.44137  0.78841  0.60226
EC88   EC   0.44137  0.96159  0.14774
EC89   EC   0.46159  0.10226  0.30863
EC90   EC   0.46159  0.14774  0.94137
EC91   EC   0.46159  0.30863  0.60226
EC92   EC   0.46159  0.44137  0.14774
EC93   EC   0.46159  0.60226  0.80863
EC94   EC   0.46159  0.64774  0.44137
EC95   EC   0.46159  0.80863  0.10226
EC96   EC   0.46159  0.94137  0.64774
EC97   EC   0.53841  0.05863  0.35226
EC98   EC   0.53841  0.19137  0.89774
EC99   EC   0.53841  0.35226  0.55863
EC100  EC   0.53841  0.39774  0.19137
EC101  EC   0.53841  0.55863  0.85226
EC102  EC   0.53841  0.69137  0.39774
EC103  EC   0.53841  0.85226  0.05863
EC104  EC   0.53841  0.89774  0.69137
EC105  EC   0.55863  0.03841  0.85226
EC106  EC   0.55863  0.21159  0.39774
EC107  EC   0.55863  0.35226  0.03841
EC108  EC   0.55863  0.39774  0.71159
EC109  EC   0.55863  0.53841  0.35226
EC110  EC   0.55863  0.71159  0.89774
EC111  EC   0.55863  0.85226  0.53841
EC112  EC   0.55863  0.89774  0.21159
EC113  EC   0.60226  0.28841  0.44137
EC114  EC   0.60226  0.30863  0.96159
EC115  EC   0.60226  0.44137  0.78841
EC116  EC   0.60226  0.46159  0.30863
EC117  EC   0.60226  0.78841  0.94137
EC118  EC   0.60226  0.80863  0.46159
EC119  EC   0.60226  0.94137  0.28841
EC120  EC   0.60226  0.96159  0.80863
EC121  EC   0.64774  0.28841  0.80863
EC122  EC   0.64774  0.30863  0.28841
EC123  EC   0.64774  0.44137  0.46159
EC124  EC   0.64774  0.46159  0.94137
EC125  EC   0.64774  0.78841  0.30863
EC126  EC   0.64774  0.80863  0.78841
EC127  EC   0.64774  0.94137  0.96159
EC128  EC   0.64774  0.96159  0.44137
EC129  EC   0.69137  0.03841  0.39774
EC130  EC   0.69137  0.21159  0.85226
EC131  EC   0.69137  0.35226  0.21159
EC132  EC   0.69137  0.39774  0.53841
EC133  EC   0.69137  0.53841  0.89774
EC134  EC   0.69137  0.71159  0.35226
EC135  EC   0.69137  0.85226  0.71159
EC136  EC   0.69137  0.89774  0.03841
EC137  EC   0.71159  0.05863  0.89774
EC138  EC   0.71159  0.19137  0.35226
EC139  EC   0.71159  0.35226  0.69137
EC140  EC   0.71159  0.39774  0.05863
EC141  EC   0.71159  0.55863  0.39774
EC142  EC   0.71159  0.69137  0.85226
EC143  EC   0.71159  0.85226  0.19137
EC144  EC   0.71159  0.89774  0.55863
EC145  EC   0.78841  0.10226  0.94137
EC146  EC   0.78841  0.14774  0.30863
EC147  EC   0.78841  0.30863  0.64774
EC148  EC   0.78841  0.44137  0.10226
EC149  EC   0.78841  0.60226  0.44137
EC150  EC   0.78841  0.64774  0.80863
EC151  EC   0.78841  0.80863  0.14774
EC152  EC   0.78841  0.94137  0.60226
EC153  EC   0.80863  0.10226  0.46159
EC154  EC   0.80863  0.14774  0.78841
EC155  EC   0.80863  0.28841  0.14774
EC156  EC   0.80863  0.46159  0.60226
EC157  EC   0.80863  0.60226  0.96159
EC158  EC   0.80863  0.64774  0.28841
EC159  EC   0.80863  0.78841  0.64774
EC160  EC   0.80863  0.96159  0.10226
EC161  EC   0.85226  0.03841  0.05863
EC162  EC   0.85226  0.05863  0.53841
EC163  EC   0.85226  0.19137  0.71159
EC164  EC   0.85226  0.21159  0.19137
EC165  EC   0.85226  0.53841  0.55863
EC166  EC   0.85226  0.55863  0.03841
EC167  EC   0.85226  0.69137  0.21159
EC168  EC   0.85226  0.71159  0.69137
EC169  EC   0.89774  0.03841  0.69137
EC170  EC   0.89774  0.05863  0.21159
EC171  EC   0.89774  0.19137  0.03841
EC172  EC   0.89774  0.21159  0.55863
EC173  EC   0.89774  0.53841  0.19137
EC174  EC   0.89774  0.55863  0.71159
EC175  EC   0.89774  0.69137  0.53841
EC176  EC   0.89774  0.71159  0.05863
EC177  EC   0.94137  0.10226  0.28841
EC178  EC   0.94137  0.14774  0.96159
EC179  EC   0.94137  0.28841  0.60226
EC180  EC   0.94137  0.46159  0.14774
EC181  EC   0.94137  0.60226  0.78841
EC182  EC   0.94137  0.64774  0.46159
EC183  EC   0.94137  0.78841  0.10226
EC184  EC   0.94137  0.96159  0.64774
EC185  EC   0.96159  0.10226  0.80863
EC186  EC   0.96159  0.14774  0.44137
EC187  EC   0.96159  0.30863  0.10226
EC188  EC   0.96159  0.44137  0.64774
EC189  EC   0.96159  0.60226  0.30863
EC190  EC   0.96159  0.64774  0.94137
EC191  EC   0.96159  0.80863  0.60226
EC192  EC   0.96159  0.94137  0.14774
E1    E   0.00000  0.08044  0.83044
E2    E   0.00000  0.08044  0.83044
E3    E   0.00000  0.10038  0.35038
E4    E   0.00000  0.10038  0.35038
E5    E   0.00000  0.14962  0.89962
E6    E   0.00000  0.14962  0.89962
E7    E   0.00000  0.16956  0.41956
E8    E   0.00000  0.33044  0.08044
E9    E   0.00000  0.33044  0.08044
E10   E   0.00000  0.35038  0.60038
E11   E   0.00000  0.39962  0.14962
E12   E   0.00000  0.39962  0.14962
E13   E   0.00000  0.41956  0.66956
E14   E   0.00000  0.41956  0.66956
E15   E   0.00000  0.58044  0.33044
E16   E   0.00000  0.58044  0.33044
E17   E   0.00000  0.60038  0.85038
E18   E   0.00000  0.64962  0.39962
E19   E   0.00000  0.66956  0.91956
E20   E   0.00000  0.66956  0.91956
E21   E   0.00000  0.83044  0.58044
E22   E   0.00000  0.83044  0.58044
E23   E   0.00000  0.85038  0.10038
E24   E   0.00000  0.85038  0.10038
E25   E   0.00000  0.89962  0.64962
E26   E   0.00000  0.91956  0.16956
E27   E   0.00000  0.91956  0.16956
E28   E   0.01428  0.05559  0.36512
E29   E   0.01428  0.19441  0.88488
E30   E   0.01428  0.36512  0.55559
E31   E   0.01428  0.38488  0.19441
E32   E   0.01428  0.55559  0.86512
E33   E   0.01428  0.69441  0.38488
E34   E   0.01428  0.86512  0.05559
E35   E   0.01428  0.88488  0.69441
E36   E   0.03423  0.09033  0.88974
E37   E   0.03423  0.15967  0.36026
E38   E   0.03423  0.36026  0.65967
E39   E   0.03423  0.38974  0.09033
E40   E   0.03423  0.59033  0.38974
E41   E   0.03423  0.65967  0.86026
E42   E   0.03423  0.86026  0.15967
E43   E   0.03423  0.88974  0.59033
E44   E   0.04434  0.08319  0.33752
E45   E   0.04434  0.16681  0.91248
E46   E   0.04434  0.33752  0.58319
E47   E   0.04434  0.41248  0.16681
E48   E   0.04434  0.58319  0.83752
E49   E   0.04434  0.66681  0.41248
E50   E   0.04434  0.83752  0.08319
E51   E   0.04434  0.91248  0.66681
E52   E   0.05559  0.01428  0.86512
E53   E   0.05559  0.23572  0.38488
E54   E   0.05559  0.36512  0.01428
E55   E   0.05559  0.38488  0.73572
E56   E   0.05559  0.51428  0.36512
E57   E   0.05559  0.73572  0.88488
E58   E   0.05559  0.86512  0.51428
E59   E   0.05559  0.88488  0.23572
E60   E   0.08044  0.00000  0.33044
E61   E   0.08044  0.25000  0.91956
E62   E   0.08044  0.33044  0.50000
E63   E   0.08044  0.41956  0.25000
E64   E   0.08044  0.50000  0.83044
E65   E   0.08044  0.75000  0.41956
E66   E   0.08044  0.83044  0.00000
E67   E   0.08044  0.91956  0.75000
E68   E   0.08044  0.00000  0.33044
E69   E   0.08044  0.25000  0.91956
E70   E   0.08044  0.33044  0.50000
E71   E   0.08044  0.41956  0.25000
E72   E   0.08044  0.50000  0.83044
E73   E   0.08044  0.75000  0.41956
E74   E   0.08044  0.83044  0.00000
E75   E   0.08044  0.91956  0.75000
E76   E   0.08319  0.04434  0.83752
E77   E   0.08319  0.20566  0.41248
E78   E   0.08319  0.33752  0.04434
E79   E   0.08319  0.41248  0.70566
E80   E   0.08319  0.54434  0.33752
E81   E   0.08319  0.70566  0.91248
E82   E   0.08319  0.83752  0.54434
E83   E   0.08319  0.91248  0.20566
E84   E   0.08752  0.29434  0.41681
E85   E   0.08752  0.33319  0.95566
E86   E   0.08752  0.41681  0.79434
E87   E   0.08752  0.45566  0.33319
E88   E   0.08752  0.79434  0.91681
E89   E   0.08752  0.83319  0.45566
E90   E   0.08752  0.91681  0.29434
E91   E   0.08752  0.95566  0.83319
E92   E   0.09033  0.03423  0.38974
E93   E   0.09033  0.21577  0.86026
E94   E   0.09033  0.36026  0.21577
E95   E   0.09033  0.38974  0.53423
E96   E   0.09033  0.53423  0.88974
E97   E   0.09033  0.71577  0.36026
E98   E   0.09033  0.86026  0.71577
E99   E   0.09033  0.88974  0.03423
E100  E   0.10038  0.00000  0.85038
E101  E   0.10038  0.25000  0.39962
E102  E   0.10038  0.35038  0.00000
E103  E   0.10038  0.39962  0.75000
E104  E   0.10038  0.50000  0.35038
E105  E   0.10038  0.75000  0.89962
E106  E   0.10038  0.85038  0.50000
E107  E   0.10038  0.89962  0.25000
E108  E   0.10038  0.00000  0.85038
E109  E   0.10038  0.25000  0.39962
E110  E   0.10038  0.35038  0.00000
E111  E   0.10038  0.39962  0.75000
E112  E   0.10038  0.50000  0.35038
E113  E   0.10038  0.75000  0.89962
E114  E   0.10038  0.85038  0.50000
E115  E   0.10038  0.89962  0.25000
E116  E   0.11026  0.28423  0.34033
E117  E   0.11026  0.34033  0.78423
E118  E   0.11026  0.40967  0.96577
E119  E   0.11026  0.46577  0.40967
E120  E   0.11026  0.78423  0.84033
E121  E   0.11026  0.84033  0.28423
E122  E   0.11026  0.90967  0.46577
E123  E   0.11026  0.96577  0.90967
E124  E   0.11512  0.26428  0.44441
E125  E   0.11512  0.30559  0.98572
E126  E   0.11512  0.44441  0.76428
E127  E   0.11512  0.48572  0.30559
E128  E   0.11512  0.76428  0.94441
E129  E   0.11512  0.80559  0.48572
E130  E   0.11512  0.94441  0.26428
E131  E   0.11512  0.98572  0.80559
E132  E   0.13488  0.26428  0.80559
E133  E   0.13488  0.30559  0.26428
E134  E   0.13488  0.44441  0.48572
E135  E   0.13488  0.48572  0.94441
E136  E   0.13488  0.76428  0.30559
E137  E   0.13488  0.80559  0.76428
E138  E   0.13488  0.94441  0.98572
E139  E   0.13488  0.98572  0.44441
E140  E   0.13974  0.28423  0.90967
E141  E   0.13974  0.34033  0.46577
E142  E   0.13974  0.40967  0.28423
E143  E   0.13974  0.46577  0.84033
E144  E   0.13974  0.78423  0.40967
E145  E   0.13974  0.84033  0.96577
E146  E   0.13974  0.90967  0.78423
E147  E   0.13974  0.96577  0.34033
E148  E   0.14962  0.00000  0.39962
E149  E   0.14962  0.25000  0.85038
E150  E   0.14962  0.35038  0.25000
E151  E   0.14962  0.39962  0.50000
E152  E   0.14962  0.50000  0.89962
E153  E   0.14962  0.75000  0.35038
E154  E   0.14962  0.85038  0.75000
E155  E   0.14962  0.89962  0.00000
E156  E   0.14962  0.00000  0.39962
E157  E   0.14962  0.25000  0.85038
E158  E   0.14962  0.35038  0.25000
E159  E   0.14962  0.39962  0.50000
E160  E   0.14962  0.50000  0.89962
E161  E   0.14962  0.75000  0.35038
E162  E   0.14962  0.85038  0.75000
E163  E   0.14962  0.89962  0.00000
E164  E   0.15967  0.03423  0.86026
E165  E   0.15967  0.21577  0.38974
E166  E   0.15967  0.36026  0.03423
E167  E   0.15967  0.38974  0.71577
E168  E   0.15967  0.53423  0.36026
E169  E   0.15967  0.71577  0.88974
E170  E   0.15967  0.86026  0.53423
E171  E   0.15967  0.88974  0.21577
E172  E   0.16248  0.29434  0.83319
E173  E   0.16248  0.33319  0.29434
E174  E   0.16248  0.41681  0.45566
E175  E   0.16248  0.45566  0.91681
E176  E   0.16248  0.79434  0.33319
E177  E   0.16248  0.83319  0.79434
E178  E   0.16248  0.91681  0.95566
E179  E   0.16248  0.95566  0.41681
E180  E   0.16681  0.04434  0.41248
E181  E   0.16681  0.20566  0.83752
E182  E   0.16681  0.33752  0.20566
E183  E   0.16681  0.41248  0.54434
E184  E   0.16681  0.54434  0.91248
E185  E   0.16681  0.70566  0.33752
E186  E   0.16681  0.83752  0.70566
E187  E   0.16681  0.91248  0.04434
E188  E   0.16956  0.00000  0.91956
E189  E   0.16956  0.00000  0.91956
E190  E   0.16956  0.25000  0.33044
E191  E   0.16956  0.33044  0.75000
E192  E   0.16956  0.41956  0.00000
E193  E   0.16956  0.50000  0.41956
E194  E   0.16956  0.75000  0.83044
E195  E   0.16956  0.75000  0.83044
E196  E   0.16956  0.83044  0.25000
E197  E   0.16956  0.83044  0.25000
E198  E   0.16956  0.91956  0.50000
E199  E   0.16956  0.91956  0.50000
E200  E   0.19441  0.01428  0.38488
E201  E   0.19441  0.23572  0.86512
E202  E   0.19441  0.36512  0.23572
E203  E   0.19441  0.38488  0.51428
E204  E   0.19441  0.51428  0.88488
E205  E   0.19441  0.73572  0.36512
E206  E   0.19441  0.86512  0.73572
E207  E   0.19441  0.88488  0.01428
E208  E   0.20566  0.08319  0.91248
E209  E   0.20566  0.16681  0.33752
E210  E   0.20566  0.33752  0.66681
E211  E   0.20566  0.41248  0.08319
E212  E   0.20566  0.58319  0.41248
E213  E   0.20566  0.66681  0.83752
E214  E   0.20566  0.83752  0.16681
E215  E   0.20566  0.91248  0.58319
E216  E   0.21577  0.09033  0.36026
E217  E   0.21577  0.15967  0.88974
E218  E   0.21577  0.36026  0.59033
E219  E   0.21577  0.38974  0.15967
E220  E   0.21577  0.59033  0.86026
E221  E   0.21577  0.65967  0.38974
E222  E   0.21577  0.86026  0.09033
E223  E   0.21577  0.88974  0.65967
E224  E   0.23572  0.05559  0.88488
E225  E   0.23572  0.19441  0.36512
E226  E   0.23572  0.36512  0.69441
E227  E   0.23572  0.38488  0.05559
E228  E   0.23572  0.55559  0.38488
E229  E   0.23572  0.69441  0.86512
E230  E   0.23572  0.86512  0.19441
E231  E   0.23572  0.88488  0.55559
E232  E   0.25000  0.08044  0.41956
E233  E   0.25000  0.08044  0.41956
E234  E   0.25000  0.10038  0.89962
E235  E   0.25000  0.10038  0.89962
E236  E   0.25000  0.14962  0.35038
E237  E   0.25000  0.14962  0.35038
E238  E   0.25000  0.16956  0.83044
E239  E   0.25000  0.16956  0.83044
E240  E   0.25000  0.33044  0.16956
E241  E   0.25000  0.35038  0.64962
E242  E   0.25000  0.39962  0.10038
E243  E   0.25000  0.39962  0.10038
E244  E   0.25000  0.41956  0.58044
E245  E   0.25000  0.41956  0.58044
E246  E   0.25000  0.58044  0.91956
E247  E   0.25000  0.58044  0.91956
E248  E   0.25000  0.60038  0.39962
E249  E   0.25000  0.64962  0.85038
E250  E   0.25000  0.66956  0.33044
E251  E   0.25000  0.66956  0.33044
E252  E   0.25000  0.83044  0.66956
E253  E   0.25000  0.83044  0.66956
E254  E   0.25000  0.85038  0.14962
E255  E   0.25000  0.85038  0.14962
E256  E   0.25000  0.89962  0.60038
E257  E   0.25000  0.91956  0.08044
E258  E   0.25000  0.91956  0.08044
E259  E   0.26428  0.11512  0.94441
E260  E   0.26428  0.13488  0.30559
E261  E   0.26428  0.30559  0.63488
E262  E   0.26428  0.44441  0.11512
E263  E   0.26428  0.61512  0.44441
E264  E   0.26428  0.63488  0.80559
E265  E   0.26428  0.80559  0.13488
E266  E   0.26428  0.94441  0.61512
E267  E   0.28423  0.11026  0.84033
E268  E   0.28423  0.13974  0.40967
E269  E   0.28423  0.34033  0.11026
E270  E   0.28423  0.40967  0.63974
E271  E   0.28423  0.61026  0.34033
E272  E   0.28423  0.63974  0.90967
E273  E   0.28423  0.84033  0.61026
E274  E   0.28423  0.90967  0.13974
E275  E   0.29434  0.08752  0.91681
E276  E   0.29434  0.16248  0.33319
E277  E   0.29434  0.33319  0.66248
E278  E   0.29434  0.41681  0.08752
E279  E   0.29434  0.58752  0.41681
E280  E   0.29434  0.66248  0.83319
E281  E   0.29434  0.83319  0.16248
E282  E   0.29434  0.91681  0.58752
E283  E   0.30559  0.11512  0.48572
E284  E   0.30559  0.13488  0.76428
E285  E   0.30559  0.26428  0.13488
E286  E   0.30559  0.48572  0.61512
E287  E   0.30559  0.61512  0.98572
E288  E   0.30559  0.63488  0.26428
E289  E   0.30559  0.76428  0.63488
E290  E   0.30559  0.98572  0.11512
E291  E   0.33044  0.00000  0.58044
E292  E   0.33044  0.00000  0.58044
E293  E   0.33044  0.08044  0.00000
E294  E   0.33044  0.08044  0.00000
E295  E   0.33044  0.16956  0.25000
E296  E   0.33044  0.25000  0.66956
E297  E   0.33044  0.25000  0.66956
E298  E   0.33044  0.50000  0.08044
E299  E   0.33044  0.50000  0.08044
E300  E   0.33044  0.58044  0.50000
E301  E   0.33044  0.58044  0.50000
E302  E   0.33044  0.66956  0.75000
E303  E   0.33044  0.66956  0.75000
E304  E   0.33044  0.75000  0.16956
E305  E   0.33319  0.08752  0.45566
E306  E   0.33319  0.16248  0.79434
E307  E   0.33319  0.29434  0.16248
E308  E   0.33319  0.45566  0.58752
E309  E   0.33319  0.58752  0.95566
E310  E   0.33319  0.66248  0.29434
E311  E   0.33319  0.79434  0.66248
E312  E   0.33319  0.95566  0.08752
E313  E   0.33752  0.04434  0.08319
E314  E   0.33752  0.08319  0.54434
E315  E   0.33752  0.16681  0.70566
E316  E   0.33752  0.20566  0.16681
E317  E   0.33752  0.54434  0.58319
E318  E   0.33752  0.58319  0.04434
E319  E   0.33752  0.66681  0.20566
E320  E   0.33752  0.70566  0.66681
E321  E   0.34033  0.11026  0.28423
E322  E   0.34033  0.13974  0.96577
E323  E   0.34033  0.28423  0.61026
E324  E   0.34033  0.46577  0.13974
E325  E   0.34033  0.61026  0.78423
E326  E   0.34033  0.63974  0.46577
E327  E   0.34033  0.78423  0.11026
E328  E   0.34033  0.96577  0.63974
E329  E   0.35038  0.00000  0.10038
E330  E   0.35038  0.00000  0.10038
E331  E   0.35038  0.10038  0.50000
E332  E   0.35038  0.10038  0.50000
E333  E   0.35038  0.14962  0.75000
E334  E   0.35038  0.14962  0.75000
E335  E   0.35038  0.25000  0.14962
E336  E   0.35038  0.25000  0.14962
E337  E   0.35038  0.50000  0.60038
E338  E   0.35038  0.60038  0.00000
E339  E   0.35038  0.64962  0.25000
E340  E   0.35038  0.75000  0.64962
E341  E   0.36026  0.03423  0.15967
E342  E   0.36026  0.09033  0.71577
E343  E   0.36026  0.15967  0.53423
E344  E   0.36026  0.21577  0.09033
E345  E   0.36026  0.53423  0.65967
E346  E   0.36026  0.59033  0.21577
E347  E   0.36026  0.65967  0.03423
E348  E   0.36026  0.71577  0.59033
E349  E   0.36512  0.01428  0.05559
E350  E   0.36512  0.05559  0.51428
E351  E   0.36512  0.19441  0.73572
E352  E   0.36512  0.23572  0.19441
E353  E   0.36512  0.51428  0.55559
E354  E   0.36512  0.55559  0.01428
E355  E   0.36512  0.69441  0.23572
E356  E   0.36512  0.73572  0.69441
E357  E   0.38488  0.01428  0.69441
E358  E   0.38488  0.05559  0.23572
E359  E   0.38488  0.19441  0.01428
E360  E   0.38488  0.23572  0.55559
E361  E   0.38488  0.51428  0.19441
E362  E   0.38488  0.55559  0.73572
E363  E   0.38488  0.69441  0.51428
E364  E   0.38488  0.73572  0.05559
E365  E   0.38974  0.03423  0.59033
E366  E   0.38974  0.09033  0.03423
E367  E   0.38974  0.15967  0.21577
E368  E   0.38974  0.21577  0.65967
E369  E   0.38974  0.53423  0.09033
E370  E   0.38974  0.59033  0.53423
E371  E   0.38974  0.65967  0.71577
E372  E   0.38974  0.71577  0.15967
E373  E   0.39962  0.00000  0.64962
E374  E   0.39962  0.10038  0.25000
E375  E   0.39962  0.10038  0.25000
E376  E   0.39962  0.14962  0.00000
E377  E   0.39962  0.14962  0.00000
E378  E   0.39962  0.25000  0.60038
E379  E   0.39962  0.50000  0.14962
E380  E   0.39962  0.50000  0.14962
E381  E   0.39962  0.60038  0.75000
E382  E   0.39962  0.64962  0.50000
E383  E   0.39962  0.75000  0.10038
E384  E   0.39962  0.75000  0.10038
E385  E   0.40967  0.11026  0.46577
E386  E   0.40967  0.13974  0.78423
E387  E   0.40967  0.28423  0.13974
E388  E   0.40967  0.46577  0.61026
E389  E   0.40967  0.61026  0.96577
E390  E   0.40967  0.63974  0.28423
E391  E   0.40967  0.78423  0.63974
E392  E   0.40967  0.96577  0.11026
E393  E   0.41248  0.04434  0.66681
E394  E   0.41248  0.08319  0.20566
E395  E   0.41248  0.16681  0.04434
E396  E   0.41248  0.20566  0.58319
E397  E   0.41248  0.54434  0.16681
E398  E   0.41248  0.58319  0.70566
E399  E   0.41248  0.66681  0.54434
E400  E   0.41248  0.70566  0.08319
E401  E   0.41681  0.08752  0.29434
E402  E   0.41681  0.16248  0.95566
E403  E   0.41681  0.29434  0.58752
E404  E   0.41681  0.45566  0.16248
E405  E   0.41681  0.58752  0.79434
E406  E   0.41681  0.66248  0.45566
E407  E   0.41681  0.79434  0.08752
E408  E   0.41681  0.95566  0.66248
E409  E   0.41956  0.00000  0.16956
E410  E   0.41956  0.08044  0.75000
E411  E   0.41956  0.08044  0.75000
E412  E   0.41956  0.16956  0.50000
E413  E   0.41956  0.25000  0.08044
E414  E   0.41956  0.25000  0.08044
E415  E   0.41956  0.50000  0.66956
E416  E   0.41956  0.50000  0.66956
E417  E   0.41956  0.58044  0.25000
E418  E   0.41956  0.58044  0.25000
E419  E   0.41956  0.66956  0.00000
E420  E   0.41956  0.66956  0.00000
E421  E   0.41956  0.75000  0.58044
E422  E   0.41956  0.75000  0.58044
E423  E   0.44441  0.11512  0.26428
E424  E   0.44441  0.13488  0.98572
E425  E   0.44441  0.26428  0.61512
E426  E   0.44441  0.48572  0.13488
E427  E   0.44441  0.61512  0.76428
E428  E   0.44441  0.63488  0.48572
E429  E   0.44441  0.76428  0.11512
E430  E   0.44441  0.98572  0.63488
E431  E   0.45566  0.08752  0.83319
E432  E   0.45566  0.16248  0.41681
E433  E   0.45566  0.33319  0.08752
E434  E   0.45566  0.41681  0.66248
E435  E   0.45566  0.58752  0.33319
E436  E   0.45566  0.66248  0.91681
E437  E   0.45566  0.83319  0.58752
E438  E   0.45566  0.91681  0.16248
E439  E   0.46577  0.11026  0.90967
E440  E   0.46577  0.13974  0.34033
E441  E   0.46577  0.34033  0.63974
E442  E   0.46577  0.40967  0.11026
E443  E   0.46577  0.61026  0.40967
E444  E   0.46577  0.63974  0.84033
E445  E   0.46577  0.84033  0.13974
E446  E   0.46577  0.90967  0.61026
E447  E   0.48572  0.11512  0.80559
E448  E   0.48572  0.13488  0.44441
E449  E   0.48572  0.30559  0.11512
E450  E   0.48572  0.44441  0.63488
E451  E   0.48572  0.61512  0.30559
E452  E   0.48572  0.63488  0.94441
E453  E   0.48572  0.80559  0.61512
E454  E   0.48572  0.94441  0.13488
E455  E   0.50000  0.08044  0.33044
E456  E   0.50000  0.08044  0.33044
E457  E   0.50000  0.10038  0.85038
E458  E   0.50000  0.10038  0.85038
E459  E   0.50000  0.14962  0.39962
E460  E   0.50000  0.14962  0.39962
E461  E   0.50000  0.16956  0.91956
E462  E   0.50000  0.16956  0.91956
E463  E   0.50000  0.33044  0.58044
E464  E   0.50000  0.33044  0.58044
E465  E   0.50000  0.35038  0.10038
E466  E   0.50000  0.35038  0.10038
E467  E   0.50000  0.39962  0.64962
E468  E   0.50000  0.41956  0.16956
E469  E   0.50000  0.58044  0.83044
E470  E   0.50000  0.58044  0.83044
E471  E   0.50000  0.60038  0.35038
E472  E   0.50000  0.64962  0.89962
E473  E   0.50000  0.66956  0.41956
E474  E   0.50000  0.66956  0.41956
E475  E   0.50000  0.83044  0.08044
E476  E   0.50000  0.83044  0.08044
E477  E   0.50000  0.85038  0.60038
E478  E   0.50000  0.89962  0.14962
E479  E   0.50000  0.89962  0.14962
E480  E   0.50000  0.91956  0.66956
E481  E   0.50000  0.91956  0.66956
E482  E   0.51428  0.05559  0.86512
E483  E   0.51428  0.19441  0.38488
E484  E   0.51428  0.36512  0.05559
E485  E   0.51428  0.38488  0.69441
E486  E   0.51428  0.55559  0.36512
E487  E   0.51428  0.69441  0.88488
E488  E   0.51428  0.86512  0.55559
E489  E   0.51428  0.88488  0.19441
E490  E   0.53423  0.09033  0.38974
E491  E   0.53423  0.15967  0.86026
E492  E   0.53423  0.36026  0.15967
E493  E   0.53423  0.38974  0.59033
E494  E   0.53423  0.59033  0.88974
E495  E   0.53423  0.65967  0.36026
E496  E   0.53423  0.86026  0.65967
E497  E   0.53423  0.88974  0.09033
E498  E   0.54434  0.08319  0.83752
E499  E   0.54434  0.16681  0.41248
E500  E   0.54434  0.33752  0.08319
E501  E   0.54434  0.41248  0.66681
E502  E   0.54434  0.58319  0.33752
E503  E   0.54434  0.66681  0.91248
E504  E   0.54434  0.83752  0.58319
E505  E   0.54434  0.91248  0.16681
E506  E   0.55559  0.01428  0.36512
E507  E   0.55559  0.23572  0.88488
E508  E   0.55559  0.36512  0.51428
E509  E   0.55559  0.38488  0.23572
E510  E   0.55559  0.51428  0.86512
E511  E   0.55559  0.73572  0.38488
E512  E   0.55559  0.86512  0.01428
E513  E   0.55559  0.88488  0.73572
E514  E   0.58044  0.00000  0.83044
E515  E   0.58044  0.25000  0.41956
E516  E   0.58044  0.33044  0.00000
E517  E   0.58044  0.41956  0.75000
E518  E   0.58044  0.50000  0.33044
E519  E   0.58044  0.75000  0.91956
E520  E   0.58044  0.83044  0.50000
E521  E   0.58044  0.91956  0.25000
E522  E   0.58044  0.00000  0.83044
E523  E   0.58044  0.25000  0.41956
E524  E   0.58044  0.33044  0.00000
E525  E   0.58044  0.41956  0.75000
E526  E   0.58044  0.50000  0.33044
E527  E   0.58044  0.75000  0.91956
E528  E   0.58044  0.83044  0.50000
E529  E   0.58044  0.91956  0.25000
E530  E   0.58319  0.04434  0.33752
E531  E   0.58319  0.20566  0.91248
E532  E   0.58319  0.33752  0.54434
E533  E   0.58319  0.41248  0.20566
E534  E   0.58319  0.54434  0.83752
E535  E   0.58319  0.70566  0.41248
E536  E   0.58319  0.83752  0.04434
E537  E   0.58319  0.91248  0.70566
E538  E   0.58752  0.29434  0.91681
E539  E   0.58752  0.33319  0.45566
E540  E   0.58752  0.41681  0.29434
E541  E   0.58752  0.45566  0.83319
E542  E   0.58752  0.79434  0.41681
E543  E   0.58752  0.83319  0.95566
E544  E   0.58752  0.91681  0.79434
E545  E   0.58752  0.95566  0.33319
E546  E   0.59033  0.03423  0.88974
E547  E   0.59033  0.21577  0.36026
E548  E   0.59033  0.36026  0.71577
E549  E   0.59033  0.38974  0.03423
E550  E   0.59033  0.53423  0.38974
E551  E   0.59033  0.71577  0.86026
E552  E   0.59033  0.86026  0.21577
E553  E   0.59033  0.88974  0.53423
E554  E   0.60038  0.00000  0.35038
E555  E   0.60038  0.25000  0.89962
E556  E   0.60038  0.35038  0.50000
E557  E   0.60038  0.39962  0.25000
E558  E   0.60038  0.50000  0.85038
E559  E   0.60038  0.75000  0.39962
E560  E   0.60038  0.85038  0.00000
E561  E   0.60038  0.89962  0.75000
E562  E   0.61026  0.28423  0.84033
E563  E   0.61026  0.34033  0.28423
E564  E   0.61026  0.40967  0.46577
E565  E   0.61026  0.46577  0.90967
E566  E   0.61026  0.78423  0.34033
E567  E   0.61026  0.84033  0.78423
E568  E   0.61026  0.90967  0.96577
E569  E   0.61026  0.96577  0.40967
E570  E   0.61512  0.26428  0.94441
E571  E   0.61512  0.30559  0.48572
E572  E   0.61512  0.44441  0.26428
E573  E   0.61512  0.48572  0.80559
E574  E   0.61512  0.76428  0.44441
E575  E   0.61512  0.80559  0.98572
E576  E   0.61512  0.94441  0.76428
E577  E   0.61512  0.98572  0.30559
E578  E   0.63488  0.26428  0.30559
E579  E   0.63488  0.30559  0.76428
E580  E   0.63488  0.44441  0.98572
E581  E   0.63488  0.48572  0.44441
E582  E   0.63488  0.76428  0.80559
E583  E   0.63488  0.80559  0.26428
E584  E   0.63488  0.94441  0.48572
E585  E   0.63488  0.98572  0.94441
E586  E   0.63974  0.28423  0.40967
E587  E   0.63974  0.34033  0.96577
E588  E   0.63974  0.40967  0.78423
E589  E   0.63974  0.46577  0.34033
E590  E   0.63974  0.78423  0.90967
E591  E   0.63974  0.84033  0.46577
E592  E   0.63974  0.90967  0.28423
E593  E   0.63974  0.96577  0.84033
E594  E   0.64962  0.00000  0.89962
E595  E   0.64962  0.25000  0.35038
E596  E   0.64962  0.35038  0.75000
E597  E   0.64962  0.39962  0.00000
E598  E   0.64962  0.50000  0.39962
E599  E   0.64962  0.75000  0.85038
E600  E   0.64962  0.85038  0.25000
E601  E   0.64962  0.89962  0.50000
E602  E   0.65967  0.03423  0.36026
E603  E   0.65967  0.21577  0.88974
E604  E   0.65967  0.36026  0.53423
E605  E   0.65967  0.38974  0.21577
E606  E   0.65967  0.53423  0.86026
E607  E   0.65967  0.71577  0.38974
E608  E   0.65967  0.86026  0.03423
E609  E   0.65967  0.88974  0.71577
E610  E   0.66248  0.29434  0.33319
E611  E   0.66248  0.33319  0.79434
E612  E   0.66248  0.41681  0.95566
E613  E   0.66248  0.45566  0.41681
E614  E   0.66248  0.79434  0.83319
E615  E   0.66248  0.83319  0.29434
E616  E   0.66248  0.91681  0.45566
E617  E   0.66248  0.95566  0.91681
E618  E   0.66681  0.04434  0.91248
E619  E   0.66681  0.20566  0.33752
E620  E   0.66681  0.33752  0.70566
E621  E   0.66681  0.41248  0.04434
E622  E   0.66681  0.54434  0.41248
E623  E   0.66681  0.70566  0.83752
E624  E   0.66681  0.83752  0.20566
E625  E   0.66681  0.91248  0.54434
E626  E   0.66956  0.00000  0.41956
E627  E   0.66956  0.25000  0.83044
E628  E   0.66956  0.33044  0.25000
E629  E   0.66956  0.41956  0.50000
E630  E   0.66956  0.50000  0.91956
E631  E   0.66956  0.75000  0.33044
E632  E   0.66956  0.83044  0.75000
E633  E   0.66956  0.91956  0.00000
E634  E   0.66956  0.00000  0.41956
E635  E   0.66956  0.25000  0.83044
E636  E   0.66956  0.33044  0.25000
E637  E   0.66956  0.41956  0.50000
E638  E   0.66956  0.50000  0.91956
E639  E   0.66956  0.75000  0.33044
E640  E   0.66956  0.83044  0.75000
E641  E   0.66956  0.91956  0.00000
E642  E   0.69441  0.01428  0.88488
E643  E   0.69441  0.23572  0.36512
E644  E   0.69441  0.36512  0.73572
E645  E   0.69441  0.38488  0.01428
E646  E   0.69441  0.51428  0.38488
E647  E   0.69441  0.73572  0.86512
E648  E   0.69441  0.86512  0.23572
E649  E   0.69441  0.88488  0.51428
E650  E   0.70566  0.08319  0.41248
E651  E   0.70566  0.16681  0.83752
E652  E   0.70566  0.33752  0.16681
E653  E   0.70566  0.41248  0.58319
E654  E   0.70566  0.58319  0.91248
E655  E   0.70566  0.66681  0.33752
E656  E   0.70566  0.83752  0.66681
E657  E   0.70566  0.91248  0.08319
E658  E   0.71577  0.09033  0.86026
E659  E   0.71577  0.15967  0.38974
E660  E   0.71577  0.36026  0.09033
E661  E   0.71577  0.38974  0.65967
E662  E   0.71577  0.59033  0.36026
E663  E   0.71577  0.65967  0.88974
E664  E   0.71577  0.86026  0.59033
E665  E   0.71577  0.88974  0.15967
E666  E   0.73572  0.05559  0.38488
E667  E   0.73572  0.19441  0.86512
E668  E   0.73572  0.36512  0.19441
E669  E   0.73572  0.38488  0.55559
E670  E   0.73572  0.55559  0.88488
E671  E   0.73572  0.69441  0.36512
E672  E   0.73572  0.86512  0.69441
E673  E   0.73572  0.88488  0.05559
E674  E   0.75000  0.08044  0.91956
E675  E   0.75000  0.08044  0.91956
E676  E   0.75000  0.10038  0.39962
E677  E   0.75000  0.10038  0.39962
E678  E   0.75000  0.14962  0.85038
E679  E   0.75000  0.14962  0.85038
E680  E   0.75000  0.16956  0.33044
E681  E   0.75000  0.33044  0.66956
E682  E   0.75000  0.33044  0.66956
E683  E   0.75000  0.35038  0.14962
E684  E   0.75000  0.35038  0.14962
E685  E   0.75000  0.39962  0.60038
E686  E   0.75000  0.41956  0.08044
E687  E   0.75000  0.41956  0.08044
E688  E   0.75000  0.58044  0.41956
E689  E   0.75000  0.58044  0.41956
E690  E   0.75000  0.60038  0.89962
E691  E   0.75000  0.64962  0.35038
E692  E   0.75000  0.66956  0.83044
E693  E   0.75000  0.66956  0.83044
E694  E   0.75000  0.83044  0.16956
E695  E   0.75000  0.83044  0.16956
E696  E   0.75000  0.85038  0.64962
E697  E   0.75000  0.89962  0.10038
E698  E   0.75000  0.89962  0.10038
E699  E   0.75000  0.91956  0.58044
E700  E   0.75000  0.91956  0.58044
E701  E   0.76428  0.11512  0.44441
E702  E   0.76428  0.13488  0.80559
E703  E   0.76428  0.30559  0.13488
E704  E   0.76428  0.44441  0.61512
E705  E   0.76428  0.61512  0.94441
E706  E   0.76428  0.63488  0.30559
E707  E   0.76428  0.80559  0.63488
E708  E   0.76428  0.94441  0.11512
E709  E   0.78423  0.11026  0.34033
E710  E   0.78423  0.13974  0.90967
E711  E   0.78423  0.34033  0.61026
E712  E   0.78423  0.40967  0.13974
E713  E   0.78423  0.61026  0.84033
E714  E   0.78423  0.63974  0.40967
E715  E   0.78423  0.84033  0.11026
E716  E   0.78423  0.90967  0.63974
E717  E   0.79434  0.08752  0.41681
E718  E   0.79434  0.16248  0.83319
E719  E   0.79434  0.33319  0.16248
E720  E   0.79434  0.41681  0.58752
E721  E   0.79434  0.58752  0.91681
E722  E   0.79434  0.66248  0.33319
E723  E   0.79434  0.83319  0.66248
E724  E   0.79434  0.91681  0.08752
E725  E   0.80559  0.11512  0.98572
E726  E   0.80559  0.13488  0.26428
E727  E   0.80559  0.26428  0.63488
E728  E   0.80559  0.48572  0.11512
E729  E   0.80559  0.61512  0.48572
E730  E   0.80559  0.63488  0.76428
E731  E   0.80559  0.76428  0.13488
E732  E   0.80559  0.98572  0.61512
E733  E   0.83044  0.00000  0.08044
E734  E   0.83044  0.08044  0.50000
E735  E   0.83044  0.16956  0.75000
E736  E   0.83044  0.25000  0.16956
E737  E   0.83044  0.50000  0.58044
E738  E   0.83044  0.58044  0.00000
E739  E   0.83044  0.66956  0.25000
E740  E   0.83044  0.75000  0.66956
E741  E   0.83044  0.00000  0.08044
E742  E   0.83044  0.08044  0.50000
E743  E   0.83044  0.16956  0.75000
E744  E   0.83044  0.25000  0.16956
E745  E   0.83044  0.50000  0.58044
E746  E   0.83044  0.58044  0.00000
E747  E   0.83044  0.66956  0.25000
E748  E   0.83044  0.75000  0.66956
E749  E   0.83319  0.08752  0.95566
E750  E   0.83319  0.16248  0.29434
E751  E   0.83319  0.29434  0.66248
E752  E   0.83319  0.45566  0.08752
E753  E   0.83319  0.58752  0.45566
E754  E   0.83319  0.66248  0.79434
E755  E   0.83319  0.79434  0.16248
E756  E   0.83319  0.95566  0.58752
E757  E   0.83752  0.04434  0.58319
E758  E   0.83752  0.08319  0.04434
E759  E   0.83752  0.16681  0.20566
E760  E   0.83752  0.20566  0.66681
E761  E   0.83752  0.54434  0.08319
E762  E   0.83752  0.58319  0.54434
E763  E   0.83752  0.66681  0.70566
E764  E   0.83752  0.70566  0.16681
E765  E   0.84033  0.11026  0.78423
E766  E   0.84033  0.13974  0.46577
E767  E   0.84033  0.28423  0.11026
E768  E   0.84033  0.46577  0.63974
E769  E   0.84033  0.61026  0.28423
E770  E   0.84033  0.63974  0.96577
E771  E   0.84033  0.78423  0.61026
E772  E   0.84033  0.96577  0.13974
E773  E   0.85038  0.00000  0.60038
E774  E   0.85038  0.10038  0.00000
E775  E   0.85038  0.10038  0.00000
E776  E   0.85038  0.14962  0.25000
E777  E   0.85038  0.14962  0.25000
E778  E   0.85038  0.25000  0.64962
E779  E   0.85038  0.50000  0.10038
E780  E   0.85038  0.50000  0.10038
E781  E   0.85038  0.60038  0.50000
E782  E   0.85038  0.64962  0.75000
E783  E   0.85038  0.75000  0.14962
E784  E   0.85038  0.75000  0.14962
E785  E   0.86026  0.03423  0.65967
E786  E   0.86026  0.09033  0.21577
E787  E   0.86026  0.15967  0.03423
E788  E   0.86026  0.21577  0.59033
E789  E   0.86026  0.53423  0.15967
E790  E   0.86026  0.59033  0.71577
E791  E   0.86026  0.65967  0.53423
E792  E   0.86026  0.71577  0.09033
E793  E   0.86512  0.01428  0.55559
E794  E   0.86512  0.05559  0.01428
E795  E   0.86512  0.19441  0.23572
E796  E   0.86512  0.23572  0.69441
E797  E   0.86512  0.51428  0.05559
E798  E   0.86512  0.55559  0.51428
E799  E   0.86512  0.69441  0.73572
E800  E   0.86512  0.73572  0.19441
E801  E   0.88488  0.01428  0.19441
E802  E   0.88488  0.05559  0.73572
E803  E   0.88488  0.19441  0.51428
E804  E   0.88488  0.23572  0.05559
E805  E   0.88488  0.51428  0.69441
E806  E   0.88488  0.55559  0.23572
E807  E   0.88488  0.69441  0.01428
E808  E   0.88488  0.73572  0.55559
E809  E   0.88974  0.03423  0.09033
E810  E   0.88974  0.09033  0.53423
E811  E   0.88974  0.15967  0.71577
E812  E   0.88974  0.21577  0.15967
E813  E   0.88974  0.53423  0.59033
E814  E   0.88974  0.59033  0.03423
E815  E   0.88974  0.65967  0.21577
E816  E   0.88974  0.71577  0.65967
E817  E   0.89962  0.00000  0.14962
E818  E   0.89962  0.00000  0.14962
E819  E   0.89962  0.10038  0.75000
E820  E   0.89962  0.10038  0.75000
E821  E   0.89962  0.14962  0.50000
E822  E   0.89962  0.14962  0.50000
E823  E   0.89962  0.25000  0.10038
E824  E   0.89962  0.25000  0.10038
E825  E   0.89962  0.50000  0.64962
E826  E   0.89962  0.60038  0.25000
E827  E   0.89962  0.64962  0.00000
E828  E   0.89962  0.75000  0.60038
E829  E   0.90967  0.11026  0.96577
E830  E   0.90967  0.13974  0.28423
E831  E   0.90967  0.28423  0.63974
E832  E   0.90967  0.46577  0.11026
E833  E   0.90967  0.61026  0.46577
E834  E   0.90967  0.63974  0.78423
E835  E   0.90967  0.78423  0.13974
E836  E   0.90967  0.96577  0.61026
E837  E   0.91248  0.04434  0.16681
E838  E   0.91248  0.08319  0.70566
E839  E   0.91248  0.16681  0.54434
E840  E   0.91248  0.20566  0.08319
E841  E   0.91248  0.54434  0.66681
E842  E   0.91248  0.58319  0.20566
E843  E   0.91248  0.66681  0.04434
E844  E   0.91248  0.70566  0.58319
E845  E   0.91681  0.08752  0.79434
E846  E   0.91681  0.16248  0.45566
E847  E   0.91681  0.29434  0.08752
E848  E   0.91681  0.45566  0.66248
E849  E   0.91681  0.58752  0.29434
E850  E   0.91681  0.66248  0.95566
E851  E   0.91681  0.79434  0.58752
E852  E   0.91681  0.95566  0.16248
E853  E   0.91956  0.00000  0.66956
E854  E   0.91956  0.08044  0.25000
E855  E   0.91956  0.16956  0.00000
E856  E   0.91956  0.25000  0.58044
E857  E   0.91956  0.50000  0.16956
E858  E   0.91956  0.58044  0.75000
E859  E   0.91956  0.66956  0.50000
E860  E   0.91956  0.75000  0.08044
E861  E   0.91956  0.00000  0.66956
E862  E   0.91956  0.08044  0.25000
E863  E   0.91956  0.16956  0.00000
E864  E   0.91956  0.25000  0.58044
E865  E   0.91956  0.50000  0.16956
E866  E   0.91956  0.58044  0.75000
E867  E   0.91956  0.66956  0.50000
E868  E   0.91956  0.75000  0.08044
E869  E   0.94441  0.11512  0.76428
E870  E   0.94441  0.13488  0.48572
E871  E   0.94441  0.26428  0.11512
E872  E   0.94441  0.48572  0.63488
E873  E   0.94441  0.61512  0.26428
E874  E   0.94441  0.63488  0.98572
E875  E   0.94441  0.76428  0.61512
E876  E   0.94441  0.98572  0.13488
E877  E   0.95566  0.08752  0.33319
E878  E   0.95566  0.16248  0.91681
E879  E   0.95566  0.33319  0.58752
E880  E   0.95566  0.41681  0.16248
E881  E   0.95566  0.58752  0.83319
E882  E   0.95566  0.66248  0.41681
E883  E   0.95566  0.83319  0.08752
E884  E   0.95566  0.91681  0.66248
E885  E   0.96577  0.11026  0.40967
E886  E   0.96577  0.13974  0.84033
E887  E   0.96577  0.34033  0.13974
E888  E   0.96577  0.40967  0.61026
E889  E   0.96577  0.61026  0.90967
E890  E   0.96577  0.63974  0.34033
E891  E   0.96577  0.84033  0.63974
E892  E   0.96577  0.90967  0.11026
E893  E   0.98572  0.11512  0.30559
E894  E   0.98572  0.13488  0.94441
E895  E   0.98572  0.30559  0.61512
E896  E   0.98572  0.44441  0.13488
E897  E   0.98572  0.61512  0.80559
E898  E   0.98572  0.63488  0.44441
E899  E   0.98572  0.80559  0.11512
E900  E   0.98572  0.94441  0.63488
loop_
