data_fut_Pm-3m  hall_number: 517, V_con: 4, EC_con: 4
_audit_creation_date              2025-03-05
_audit_creation_method            'MOFbuilder_1.0'
_symmetry_space_group_name_H-M    'P1'
_symmetry_Int_Tables_number       1
_symmetry_cell_setting            triclinic
loop_
_symmetry_equiv_pos_as_xyz
  x,y,z
_cell_length_a                    60.5317
_cell_length_b                    60.5317
_cell_length_c                    60.5317
_cell_angle_alpha                 90.0
_cell_angle_beta                  90.0
_cell_angle_gamma                 90.0
loop_
_atom_site_label
_atom_site_type_symbol
_atom_site_fract_x
_atom_site_fract_y
_atom_site_fract_z
V1    V   0.08260  0.19942  0.50000
V2    V   0.08260  0.50000  0.19942
V3    V   0.08260  0.50000  0.80058
V4    V   0.08260  0.80058  0.50000
V5    V   0.19942  0.08260  0.50000
V6    V   0.19942  0.50000  0.08260
V7    V   0.19942  0.50000  0.91740
V8    V   0.19942  0.91740  0.50000
V9    V   0.50000  0.08260  0.19942
V10   V   0.50000  0.08260  0.80058
V11   V   0.50000  0.19942  0.08260
V12   V   0.50000  0.19942  0.91740
V13   V   0.50000  0.80058  0.08260
V14   V   0.50000  0.80058  0.91740
V15   V   0.50000  0.91740  0.19942
V16   V   0.50000  0.91740  0.80058
V17   V   0.80058  0.08260  0.50000
V18   V   0.80058  0.50000  0.08260
V19   V   0.80058  0.50000  0.91740
V20   V   0.80058  0.91740  0.50000
V21   V   0.91740  0.19942  0.50000
V22   V   0.91740  0.50000  0.19942
V23   V   0.91740  0.50000  0.80058
V24   V   0.91740  0.80058  0.50000
EC1    EC   0.18377  0.30058  0.41740
EC2    EC   0.18377  0.30058  0.58260
EC3    EC   0.18377  0.41740  0.30058
EC4    EC   0.18377  0.41740  0.69942
EC5    EC   0.18377  0.58260  0.30058
EC6    EC   0.18377  0.58260  0.69942
EC7    EC   0.18377  0.69942  0.41740
EC8    EC   0.18377  0.69942  0.58260
EC9    EC   0.30058  0.18377  0.41740
EC10   EC   0.30058  0.18377  0.58260
EC11   EC   0.30058  0.41740  0.18377
EC12   EC   0.30058  0.41740  0.81623
EC13   EC   0.30058  0.58260  0.18377
EC14   EC   0.30058  0.58260  0.81623
EC15   EC   0.30058  0.81623  0.41740
EC16   EC   0.30058  0.81623  0.58260
EC17   EC   0.41740  0.18377  0.30058
EC18   EC   0.41740  0.18377  0.69942
EC19   EC   0.41740  0.30058  0.18377
EC20   EC   0.41740  0.30058  0.81623
EC21   EC   0.41740  0.69942  0.18377
EC22   EC   0.41740  0.69942  0.81623
EC23   EC   0.41740  0.81623  0.30058
EC24   EC   0.41740  0.81623  0.69942
EC25   EC   0.58260  0.18377  0.30058
EC26   EC   0.58260  0.18377  0.69942
EC27   EC   0.58260  0.30058  0.18377
EC28   EC   0.58260  0.30058  0.81623
EC29   EC   0.58260  0.69942  0.18377
EC30   EC   0.58260  0.69942  0.81623
EC31   EC   0.58260  0.81623  0.30058
EC32   EC   0.58260  0.81623  0.69942
EC33   EC   0.69942  0.18377  0.41740
EC34   EC   0.69942  0.18377  0.58260
EC35   EC   0.69942  0.41740  0.18377
EC36   EC   0.69942  0.41740  0.81623
EC37   EC   0.69942  0.58260  0.18377
EC38   EC   0.69942  0.58260  0.81623
EC39   EC   0.69942  0.81623  0.41740
EC40   EC   0.69942  0.81623  0.58260
EC41   EC   0.81623  0.30058  0.41740
EC42   EC   0.81623  0.30058  0.58260
EC43   EC   0.81623  0.41740  0.30058
EC44   EC   0.81623  0.41740  0.69942
EC45   EC   0.81623  0.58260  0.30058
EC46   EC   0.81623  0.58260  0.69942
EC47   EC   0.81623  0.69942  0.41740
EC48   EC   0.81623  0.69942  0.58260
E1    E   0.00000  0.19942  0.50000
E2    E   0.00000  0.50000  0.19942
E3    E   0.00000  0.50000  0.80058
E4    E   0.00000  0.80058  0.50000
E5    E   0.13318  0.25000  0.45870
E6    E   0.13318  0.25000  0.54130
E7    E   0.13318  0.45870  0.25000
E8    E   0.13318  0.45870  0.75000
E9    E   0.13318  0.54130  0.25000
E10   E   0.13318  0.54130  0.75000
E11   E   0.13318  0.75000  0.45870
E12   E   0.13318  0.75000  0.54130
E13   E   0.14101  0.14101  0.50000
E14   E   0.14101  0.50000  0.14101
E15   E   0.14101  0.50000  0.85899
E16   E   0.14101  0.85899  0.50000
E17   E   0.18377  0.30058  0.50000
E18   E   0.18377  0.35899  0.35899
E19   E   0.18377  0.35899  0.64101
E20   E   0.18377  0.50000  0.30058
E21   E   0.18377  0.50000  0.69942
E22   E   0.18377  0.64101  0.35899
E23   E   0.18377  0.64101  0.64101
E24   E   0.18377  0.69942  0.50000
E25   E   0.19942  0.00000  0.50000
E26   E   0.19942  0.50000  0.00000
E27   E   0.24217  0.24217  0.41740
E28   E   0.24217  0.24217  0.58260
E29   E   0.24217  0.41740  0.24217
E30   E   0.24217  0.41740  0.75783
E31   E   0.24217  0.58260  0.24217
E32   E   0.24217  0.58260  0.75783
E33   E   0.24217  0.75783  0.41740
E34   E   0.24217  0.75783  0.58260
E35   E   0.25000  0.13318  0.45870
E36   E   0.25000  0.13318  0.54130
E37   E   0.25000  0.45870  0.13318
E38   E   0.25000  0.45870  0.86682
E39   E   0.25000  0.54130  0.13318
E40   E   0.25000  0.54130  0.86682
E41   E   0.25000  0.86682  0.45870
E42   E   0.25000  0.86682  0.54130
E43   E   0.30058  0.18377  0.50000
E44   E   0.30058  0.50000  0.18377
E45   E   0.30058  0.50000  0.81623
E46   E   0.30058  0.81623  0.50000
E47   E   0.35899  0.18377  0.35899
E48   E   0.35899  0.18377  0.64101
E49   E   0.35899  0.35899  0.18377
E50   E   0.35899  0.35899  0.81623
E51   E   0.35899  0.64101  0.18377
E52   E   0.35899  0.64101  0.81623
E53   E   0.35899  0.81623  0.35899
E54   E   0.35899  0.81623  0.64101
E55   E   0.41740  0.24217  0.24217
E56   E   0.41740  0.24217  0.75783
E57   E   0.41740  0.75783  0.24217
E58   E   0.41740  0.75783  0.75783
E59   E   0.45870  0.13318  0.25000
E60   E   0.45870  0.13318  0.75000
E61   E   0.45870  0.25000  0.13318
E62   E   0.45870  0.25000  0.86682
E63   E   0.45870  0.75000  0.13318
E64   E   0.45870  0.75000  0.86682
E65   E   0.45870  0.86682  0.25000
E66   E   0.45870  0.86682  0.75000
E67   E   0.50000  0.00000  0.19942
E68   E   0.50000  0.00000  0.80058
E69   E   0.50000  0.14101  0.14101
E70   E   0.50000  0.14101  0.85899
E71   E   0.50000  0.18377  0.30058
E72   E   0.50000  0.18377  0.69942
E73   E   0.50000  0.19942  0.00000
E74   E   0.50000  0.30058  0.18377
E75   E   0.50000  0.30058  0.81623
E76   E   0.50000  0.69942  0.18377
E77   E   0.50000  0.69942  0.81623
E78   E   0.50000  0.80058  0.00000
E79   E   0.50000  0.81623  0.30058
E80   E   0.50000  0.81623  0.69942
E81   E   0.50000  0.85899  0.14101
E82   E   0.50000  0.85899  0.85899
E83   E   0.54130  0.13318  0.25000
E84   E   0.54130  0.13318  0.75000
E85   E   0.54130  0.25000  0.13318
E86   E   0.54130  0.25000  0.86682
E87   E   0.54130  0.75000  0.13318
E88   E   0.54130  0.75000  0.86682
E89   E   0.54130  0.86682  0.25000
E90   E   0.54130  0.86682  0.75000
E91   E   0.58260  0.24217  0.24217
E92   E   0.58260  0.24217  0.75783
E93   E   0.58260  0.75783  0.24217
E94   E   0.58260  0.75783  0.75783
E95   E   0.64101  0.18377  0.35899
E96   E   0.64101  0.18377  0.64101
E97   E   0.64101  0.35899  0.18377
E98   E   0.64101  0.35899  0.81623
E99   E   0.64101  0.64101  0.18377
E100  E   0.64101  0.64101  0.81623
E101  E   0.64101  0.81623  0.35899
E102  E   0.64101  0.81623  0.64101
E103  E   0.69942  0.18377  0.50000
E104  E   0.69942  0.50000  0.18377
E105  E   0.69942  0.50000  0.81623
E106  E   0.69942  0.81623  0.50000
E107  E   0.75000  0.13318  0.45870
E108  E   0.75000  0.13318  0.54130
E109  E   0.75000  0.45870  0.13318
E110  E   0.75000  0.45870  0.86682
E111  E   0.75000  0.54130  0.13318
E112  E   0.75000  0.54130  0.86682
E113  E   0.75000  0.86682  0.45870
E114  E   0.75000  0.86682  0.54130
E115  E   0.75783  0.24217  0.41740
E116  E   0.75783  0.24217  0.58260
E117  E   0.75783  0.41740  0.24217
E118  E   0.75783  0.41740  0.75783
E119  E   0.75783  0.58260  0.24217
E120  E   0.75783  0.58260  0.75783
E121  E   0.75783  0.75783  0.41740
E122  E   0.75783  0.75783  0.58260
E123  E   0.80058  0.00000  0.50000
E124  E   0.80058  0.50000  0.00000
E125  E   0.81623  0.30058  0.50000
E126  E   0.81623  0.35899  0.35899
E127  E   0.81623  0.35899  0.64101
E128  E   0.81623  0.50000  0.30058
E129  E   0.81623  0.50000  0.69942
E130  E   0.81623  0.64101  0.35899
E131  E   0.81623  0.64101  0.64101
E132  E   0.81623  0.69942  0.50000
E133  E   0.85899  0.14101  0.50000
E134  E   0.85899  0.50000  0.14101
E135  E   0.85899  0.50000  0.85899
E136  E   0.85899  0.85899  0.50000
E137  E   0.86682  0.25000  0.45870
E138  E   0.86682  0.25000  0.54130
E139  E   0.86682  0.45870  0.25000
E140  E   0.86682  0.45870  0.75000
E141  E   0.86682  0.54130  0.25000
E142  E   0.86682  0.54130  0.75000
E143  E   0.86682  0.75000  0.45870
E144  E   0.86682  0.75000  0.54130
loop_
