data_fuy_Pn-3m:2  hall_number: 522, V_con: 4, EC_con: 4
_audit_creation_date              2025-03-05
_audit_creation_method            'MOFbuilder_1.0'
_symmetry_space_group_name_H-M    'P1'
_symmetry_Int_Tables_number       1
_symmetry_cell_setting            triclinic
loop_
_symmetry_equiv_pos_as_xyz
  x,y,z
_cell_length_a                    52.5002
_cell_length_b                    52.5002
_cell_length_c                    52.5002
_cell_angle_alpha                 90.0
_cell_angle_beta                  90.0
_cell_angle_gamma                 90.0
loop_
_atom_site_label
_atom_site_type_symbol
_atom_site_fract_x
_atom_site_fract_y
_atom_site_fract_z
V1    V   0.11531  0.25000  0.75000
V2    V   0.11531  0.75000  0.25000
V3    V   0.25000  0.11531  0.75000
V4    V   0.25000  0.38469  0.75000
V5    V   0.25000  0.61531  0.75000
V6    V   0.25000  0.75000  0.11531
V7    V   0.25000  0.75000  0.38469
V8    V   0.25000  0.75000  0.61531
V9    V   0.25000  0.75000  0.88469
V10   V   0.25000  0.88469  0.75000
V11   V   0.38469  0.25000  0.75000
V12   V   0.38469  0.75000  0.25000
V13   V   0.61531  0.25000  0.75000
V14   V   0.61531  0.75000  0.25000
V15   V   0.75000  0.11531  0.25000
V16   V   0.75000  0.25000  0.11531
V17   V   0.75000  0.25000  0.38469
V18   V   0.75000  0.25000  0.61531
V19   V   0.75000  0.25000  0.88469
V20   V   0.75000  0.38469  0.25000
V21   V   0.75000  0.61531  0.25000
V22   V   0.75000  0.88469  0.25000
V23   V   0.88469  0.25000  0.75000
V24   V   0.88469  0.75000  0.25000
EC1    EC   0.05499  0.18967  0.57970
EC2    EC   0.05499  0.31033  0.92030
EC3    EC   0.05499  0.57970  0.18967
EC4    EC   0.05499  0.92030  0.31033
EC5    EC   0.07970  0.55499  0.81033
EC6    EC   0.07970  0.68967  0.94501
EC7    EC   0.07970  0.81033  0.55499
EC8    EC   0.07970  0.94501  0.68967
EC9    EC   0.18967  0.05499  0.57970
EC10   EC   0.18967  0.44501  0.92030
EC11   EC   0.18967  0.57970  0.05499
EC12   EC   0.18967  0.92030  0.44501
EC13   EC   0.31033  0.05499  0.92030
EC14   EC   0.31033  0.44501  0.57970
EC15   EC   0.31033  0.57970  0.44501
EC16   EC   0.31033  0.92030  0.05499
EC17   EC   0.42030  0.55499  0.68967
EC18   EC   0.42030  0.68967  0.55499
EC19   EC   0.42030  0.81033  0.94501
EC20   EC   0.42030  0.94501  0.81033
EC21   EC   0.44501  0.18967  0.92030
EC22   EC   0.44501  0.31033  0.57970
EC23   EC   0.44501  0.57970  0.31033
EC24   EC   0.44501  0.92030  0.18967
EC25   EC   0.55499  0.07970  0.81033
EC26   EC   0.55499  0.42030  0.68967
EC27   EC   0.55499  0.68967  0.42030
EC28   EC   0.55499  0.81033  0.07970
EC29   EC   0.57970  0.05499  0.18967
EC30   EC   0.57970  0.18967  0.05499
EC31   EC   0.57970  0.31033  0.44501
EC32   EC   0.57970  0.44501  0.31033
EC33   EC   0.68967  0.07970  0.94501
EC34   EC   0.68967  0.42030  0.55499
EC35   EC   0.68967  0.55499  0.42030
EC36   EC   0.68967  0.94501  0.07970
EC37   EC   0.81033  0.07970  0.55499
EC38   EC   0.81033  0.42030  0.94501
EC39   EC   0.81033  0.55499  0.07970
EC40   EC   0.81033  0.94501  0.42030
EC41   EC   0.92030  0.05499  0.31033
EC42   EC   0.92030  0.18967  0.44501
EC43   EC   0.92030  0.31033  0.05499
EC44   EC   0.92030  0.44501  0.18967
EC45   EC   0.94501  0.07970  0.68967
EC46   EC   0.94501  0.42030  0.81033
EC47   EC   0.94501  0.68967  0.07970
EC48   EC   0.94501  0.81033  0.42030
E1    E   0.00000  0.13469  0.63469
E2    E   0.00000  0.13469  0.63469
E3    E   0.00000  0.36531  0.86531
E4    E   0.00000  0.63469  0.13469
E5    E   0.00000  0.63469  0.13469
E6    E   0.00000  0.86531  0.36531
E7    E   0.01236  0.01236  0.68967
E8    E   0.01236  0.48764  0.81033
E9    E   0.01236  0.68967  0.01236
E10   E   0.01236  0.81033  0.48764
E11   E   0.01236  0.01236  0.68967
E12   E   0.01236  0.48764  0.81033
E13   E   0.01236  0.68967  0.01236
E14   E   0.01236  0.81033  0.48764
E15   E   0.07970  0.62233  0.87767
E16   E   0.07970  0.87767  0.62233
E17   E   0.08515  0.21984  0.66485
E18   E   0.08515  0.28016  0.83515
E19   E   0.08515  0.66485  0.21984
E20   E   0.08515  0.83515  0.28016
E21   E   0.12233  0.12233  0.57970
E22   E   0.12233  0.37767  0.92030
E23   E   0.12233  0.57970  0.12233
E24   E   0.12233  0.92030  0.37767
E25   E   0.13469  0.00000  0.63469
E26   E   0.13469  0.50000  0.86531
E27   E   0.13469  0.63469  0.00000
E28   E   0.13469  0.86531  0.50000
E29   E   0.13469  0.00000  0.63469
E30   E   0.13469  0.50000  0.86531
E31   E   0.13469  0.63469  0.00000
E32   E   0.13469  0.86531  0.50000
E33   E   0.16485  0.58515  0.78016
E34   E   0.16485  0.71984  0.91485
E35   E   0.16485  0.78016  0.58515
E36   E   0.16485  0.91485  0.71984
E37   E   0.18266  0.18266  0.75000
E38   E   0.18266  0.31734  0.75000
E39   E   0.18266  0.75000  0.18266
E40   E   0.18266  0.75000  0.31734
E41   E   0.18967  0.51236  0.98764
E42   E   0.18967  0.98764  0.51236
E43   E   0.21984  0.08515  0.66485
E44   E   0.21984  0.41485  0.83515
E45   E   0.21984  0.66485  0.08515
E46   E   0.21984  0.83515  0.41485
E47   E   0.25000  0.68266  0.68266
E48   E   0.25000  0.68266  0.81734
E49   E   0.25000  0.81734  0.68266
E50   E   0.25000  0.81734  0.81734
E51   E   0.28016  0.08515  0.83515
E52   E   0.28016  0.41485  0.66485
E53   E   0.28016  0.66485  0.41485
E54   E   0.28016  0.83515  0.08515
E55   E   0.31033  0.51236  0.51236
E56   E   0.31033  0.98764  0.98764
E57   E   0.31734  0.18266  0.75000
E58   E   0.31734  0.31734  0.75000
E59   E   0.31734  0.75000  0.18266
E60   E   0.31734  0.75000  0.31734
E61   E   0.33515  0.58515  0.71984
E62   E   0.33515  0.71984  0.58515
E63   E   0.33515  0.78016  0.91485
E64   E   0.33515  0.91485  0.78016
E65   E   0.36531  0.00000  0.86531
E66   E   0.36531  0.50000  0.63469
E67   E   0.36531  0.63469  0.50000
E68   E   0.36531  0.86531  0.00000
E69   E   0.37767  0.12233  0.92030
E70   E   0.37767  0.37767  0.57970
E71   E   0.37767  0.57970  0.37767
E72   E   0.37767  0.92030  0.12233
E73   E   0.41485  0.21984  0.83515
E74   E   0.41485  0.28016  0.66485
E75   E   0.41485  0.66485  0.28016
E76   E   0.41485  0.83515  0.21984
E77   E   0.42030  0.62233  0.62233
E78   E   0.42030  0.87767  0.87767
E79   E   0.48764  0.01236  0.81033
E80   E   0.48764  0.48764  0.68967
E81   E   0.48764  0.68967  0.48764
E82   E   0.48764  0.81033  0.01236
E83   E   0.48764  0.01236  0.81033
E84   E   0.48764  0.48764  0.68967
E85   E   0.48764  0.68967  0.48764
E86   E   0.48764  0.81033  0.01236
E87   E   0.50000  0.13469  0.86531
E88   E   0.50000  0.13469  0.86531
E89   E   0.50000  0.36531  0.63469
E90   E   0.50000  0.63469  0.36531
E91   E   0.50000  0.86531  0.13469
E92   E   0.50000  0.86531  0.13469
E93   E   0.51236  0.18967  0.98764
E94   E   0.51236  0.31033  0.51236
E95   E   0.51236  0.51236  0.31033
E96   E   0.51236  0.98764  0.18967
E97   E   0.57970  0.12233  0.12233
E98   E   0.57970  0.37767  0.37767
E99   E   0.58515  0.16485  0.78016
E100  E   0.58515  0.33515  0.71984
E101  E   0.58515  0.71984  0.33515
E102  E   0.58515  0.78016  0.16485
E103  E   0.62233  0.07970  0.87767
E104  E   0.62233  0.42030  0.62233
E105  E   0.62233  0.62233  0.42030
E106  E   0.62233  0.87767  0.07970
E107  E   0.63469  0.00000  0.13469
E108  E   0.63469  0.00000  0.13469
E109  E   0.63469  0.13469  0.00000
E110  E   0.63469  0.13469  0.00000
E111  E   0.63469  0.36531  0.50000
E112  E   0.63469  0.50000  0.36531
E113  E   0.66485  0.08515  0.21984
E114  E   0.66485  0.21984  0.08515
E115  E   0.66485  0.28016  0.41485
E116  E   0.66485  0.41485  0.28016
E117  E   0.68266  0.25000  0.68266
E118  E   0.68266  0.25000  0.81734
E119  E   0.68266  0.68266  0.25000
E120  E   0.68266  0.81734  0.25000
E121  E   0.68967  0.01236  0.01236
E122  E   0.68967  0.01236  0.01236
E123  E   0.68967  0.48764  0.48764
E124  E   0.68967  0.48764  0.48764
E125  E   0.71984  0.16485  0.91485
E126  E   0.71984  0.33515  0.58515
E127  E   0.71984  0.58515  0.33515
E128  E   0.71984  0.91485  0.16485
E129  E   0.75000  0.18266  0.18266
E130  E   0.75000  0.18266  0.31734
E131  E   0.75000  0.31734  0.18266
E132  E   0.75000  0.31734  0.31734
E133  E   0.78016  0.16485  0.58515
E134  E   0.78016  0.33515  0.91485
E135  E   0.78016  0.58515  0.16485
E136  E   0.78016  0.91485  0.33515
E137  E   0.81033  0.01236  0.48764
E138  E   0.81033  0.01236  0.48764
E139  E   0.81033  0.48764  0.01236
E140  E   0.81033  0.48764  0.01236
E141  E   0.81734  0.25000  0.68266
E142  E   0.81734  0.25000  0.81734
E143  E   0.81734  0.68266  0.25000
E144  E   0.81734  0.81734  0.25000
E145  E   0.83515  0.08515  0.28016
E146  E   0.83515  0.21984  0.41485
E147  E   0.83515  0.28016  0.08515
E148  E   0.83515  0.41485  0.21984
E149  E   0.86531  0.00000  0.36531
E150  E   0.86531  0.13469  0.50000
E151  E   0.86531  0.13469  0.50000
E152  E   0.86531  0.36531  0.00000
E153  E   0.86531  0.50000  0.13469
E154  E   0.86531  0.50000  0.13469
E155  E   0.87767  0.07970  0.62233
E156  E   0.87767  0.42030  0.87767
E157  E   0.87767  0.62233  0.07970
E158  E   0.87767  0.87767  0.42030
E159  E   0.91485  0.16485  0.71984
E160  E   0.91485  0.33515  0.78016
E161  E   0.91485  0.71984  0.16485
E162  E   0.91485  0.78016  0.33515
E163  E   0.92030  0.12233  0.37767
E164  E   0.92030  0.37767  0.12233
E165  E   0.98764  0.18967  0.51236
E166  E   0.98764  0.31033  0.98764
E167  E   0.98764  0.51236  0.18967
E168  E   0.98764  0.98764  0.31033
loop_
