data_fuz_Pn-3m:2  hall_number: 522, V_con: 4, EC_con: 4
_audit_creation_date              2025-03-05
_audit_creation_method            'MOFbuilder_1.0'
_symmetry_space_group_name_H-M    'P1'
_symmetry_Int_Tables_number       1
_symmetry_cell_setting            triclinic
loop_
_symmetry_equiv_pos_as_xyz
  x,y,z
_cell_length_a                    52.3153
_cell_length_b                    52.3153
_cell_length_c                    52.3153
_cell_angle_alpha                 90.0
_cell_angle_beta                  90.0
_cell_angle_gamma                 90.0
loop_
_atom_site_label
_atom_site_type_symbol
_atom_site_fract_x
_atom_site_fract_y
_atom_site_fract_z
V1    V   0.00000  0.13516  0.86484
V2    V   0.00000  0.13516  0.86484
V3    V   0.00000  0.36484  0.63516
V4    V   0.00000  0.36484  0.63516
V5    V   0.00000  0.63516  0.36484
V6    V   0.00000  0.63516  0.36484
V7    V   0.00000  0.86484  0.13516
V8    V   0.00000  0.86484  0.13516
V9    V   0.13516  0.00000  0.86484
V10   V   0.13516  0.50000  0.63516
V11   V   0.13516  0.63516  0.50000
V12   V   0.13516  0.86484  0.00000
V13   V   0.13516  0.00000  0.86484
V14   V   0.13516  0.50000  0.63516
V15   V   0.13516  0.63516  0.50000
V16   V   0.13516  0.86484  0.00000
V17   V   0.36484  0.00000  0.63516
V18   V   0.36484  0.50000  0.86484
V19   V   0.36484  0.63516  0.00000
V20   V   0.36484  0.86484  0.50000
V21   V   0.36484  0.00000  0.63516
V22   V   0.36484  0.50000  0.86484
V23   V   0.36484  0.63516  0.00000
V24   V   0.36484  0.86484  0.50000
V25   V   0.50000  0.13516  0.63516
V26   V   0.50000  0.13516  0.63516
V27   V   0.50000  0.36484  0.86484
V28   V   0.50000  0.36484  0.86484
V29   V   0.50000  0.63516  0.13516
V30   V   0.50000  0.63516  0.13516
V31   V   0.50000  0.86484  0.36484
V32   V   0.50000  0.86484  0.36484
V33   V   0.63516  0.00000  0.36484
V34   V   0.63516  0.00000  0.36484
V35   V   0.63516  0.13516  0.50000
V36   V   0.63516  0.13516  0.50000
V37   V   0.63516  0.36484  0.00000
V38   V   0.63516  0.36484  0.00000
V39   V   0.63516  0.50000  0.13516
V40   V   0.63516  0.50000  0.13516
V41   V   0.86484  0.00000  0.13516
V42   V   0.86484  0.00000  0.13516
V43   V   0.86484  0.13516  0.00000
V44   V   0.86484  0.13516  0.00000
V45   V   0.86484  0.36484  0.50000
V46   V   0.86484  0.36484  0.50000
V47   V   0.86484  0.50000  0.36484
V48   V   0.86484  0.50000  0.36484
EC1    EC   0.05518  0.19034  0.57998
EC2    EC   0.05518  0.30966  0.92002
EC3    EC   0.05518  0.57998  0.19034
EC4    EC   0.05518  0.92002  0.30966
EC5    EC   0.07998  0.55518  0.80966
EC6    EC   0.07998  0.69034  0.94482
EC7    EC   0.07998  0.80966  0.55518
EC8    EC   0.07998  0.94482  0.69034
EC9    EC   0.19034  0.05518  0.57998
EC10   EC   0.19034  0.44482  0.92002
EC11   EC   0.19034  0.57998  0.05518
EC12   EC   0.19034  0.92002  0.44482
EC13   EC   0.30966  0.05518  0.92002
EC14   EC   0.30966  0.44482  0.57998
EC15   EC   0.30966  0.57998  0.44482
EC16   EC   0.30966  0.92002  0.05518
EC17   EC   0.42002  0.55518  0.69034
EC18   EC   0.42002  0.69034  0.55518
EC19   EC   0.42002  0.80966  0.94482
EC20   EC   0.42002  0.94482  0.80966
EC21   EC   0.44482  0.19034  0.92002
EC22   EC   0.44482  0.30966  0.57998
EC23   EC   0.44482  0.57998  0.30966
EC24   EC   0.44482  0.92002  0.19034
EC25   EC   0.55518  0.07998  0.80966
EC26   EC   0.55518  0.42002  0.69034
EC27   EC   0.55518  0.69034  0.42002
EC28   EC   0.55518  0.80966  0.07998
EC29   EC   0.57998  0.05518  0.19034
EC30   EC   0.57998  0.19034  0.05518
EC31   EC   0.57998  0.30966  0.44482
EC32   EC   0.57998  0.44482  0.30966
EC33   EC   0.69034  0.07998  0.94482
EC34   EC   0.69034  0.42002  0.55518
EC35   EC   0.69034  0.55518  0.42002
EC36   EC   0.69034  0.94482  0.07998
EC37   EC   0.80966  0.07998  0.55518
EC38   EC   0.80966  0.42002  0.94482
EC39   EC   0.80966  0.55518  0.07998
EC40   EC   0.80966  0.94482  0.42002
EC41   EC   0.92002  0.05518  0.30966
EC42   EC   0.92002  0.19034  0.44482
EC43   EC   0.92002  0.30966  0.05518
EC44   EC   0.92002  0.44482  0.19034
EC45   EC   0.94482  0.07998  0.69034
EC46   EC   0.94482  0.42002  0.80966
EC47   EC   0.94482  0.69034  0.07998
EC48   EC   0.94482  0.80966  0.42002
E1    E   0.00000  0.13516  0.63516
E2    E   0.00000  0.13516  0.63516
E3    E   0.00000  0.36484  0.86484
E4    E   0.00000  0.36484  0.86484
E5    E   0.00000  0.63516  0.13516
E6    E   0.00000  0.63516  0.13516
E7    E   0.00000  0.86484  0.36484
E8    E   0.00000  0.86484  0.36484
E9    E   0.01240  0.01240  0.69034
E10   E   0.01240  0.48760  0.80966
E11   E   0.01240  0.69034  0.01240
E12   E   0.01240  0.80966  0.48760
E13   E   0.01240  0.01240  0.69034
E14   E   0.01240  0.48760  0.80966
E15   E   0.01240  0.69034  0.01240
E16   E   0.01240  0.80966  0.48760
E17   E   0.02759  0.22241  0.89243
E18   E   0.02759  0.27759  0.60757
E19   E   0.02759  0.60757  0.27759
E20   E   0.02759  0.89243  0.22241
E21   E   0.06758  0.06758  0.86484
E22   E   0.06758  0.43242  0.63516
E23   E   0.06758  0.63516  0.43242
E24   E   0.06758  0.86484  0.06758
E25   E   0.06758  0.06758  0.86484
E26   E   0.06758  0.43242  0.63516
E27   E   0.06758  0.63516  0.43242
E28   E   0.06758  0.86484  0.06758
E29   E   0.07998  0.62276  0.87724
E30   E   0.07998  0.87724  0.62276
E31   E   0.10757  0.52759  0.72241
E32   E   0.10757  0.72241  0.52759
E33   E   0.10757  0.77759  0.97241
E34   E   0.10757  0.97241  0.77759
E35   E   0.12276  0.12276  0.57998
E36   E   0.12276  0.37724  0.92002
E37   E   0.12276  0.57998  0.12276
E38   E   0.12276  0.92002  0.37724
E39   E   0.13516  0.00000  0.63516
E40   E   0.13516  0.50000  0.86484
E41   E   0.13516  0.56758  0.56758
E42   E   0.13516  0.63516  0.00000
E43   E   0.13516  0.86484  0.50000
E44   E   0.13516  0.93242  0.93242
E45   E   0.13516  0.00000  0.63516
E46   E   0.13516  0.50000  0.86484
E47   E   0.13516  0.63516  0.00000
E48   E   0.13516  0.86484  0.50000
E49   E   0.19034  0.51240  0.98760
E50   E   0.19034  0.98760  0.51240
E51   E   0.22241  0.02759  0.89243
E52   E   0.22241  0.47241  0.60757
E53   E   0.22241  0.60757  0.47241
E54   E   0.22241  0.89243  0.02759
E55   E   0.27759  0.02759  0.60757
E56   E   0.27759  0.47241  0.89243
E57   E   0.27759  0.60757  0.02759
E58   E   0.27759  0.89243  0.47241
E59   E   0.30966  0.51240  0.51240
E60   E   0.30966  0.98760  0.98760
E61   E   0.36484  0.00000  0.86484
E62   E   0.36484  0.50000  0.63516
E63   E   0.36484  0.63516  0.50000
E64   E   0.36484  0.86484  0.00000
E65   E   0.36484  0.00000  0.86484
E66   E   0.36484  0.50000  0.63516
E67   E   0.36484  0.56758  0.93242
E68   E   0.36484  0.63516  0.50000
E69   E   0.36484  0.86484  0.00000
E70   E   0.36484  0.93242  0.56758
E71   E   0.37724  0.12276  0.92002
E72   E   0.37724  0.37724  0.57998
E73   E   0.37724  0.57998  0.37724
E74   E   0.37724  0.92002  0.12276
E75   E   0.39243  0.52759  0.77759
E76   E   0.39243  0.72241  0.97241
E77   E   0.39243  0.77759  0.52759
E78   E   0.39243  0.97241  0.72241
E79   E   0.42002  0.62276  0.62276
E80   E   0.42002  0.87724  0.87724
E81   E   0.43242  0.06758  0.63516
E82   E   0.43242  0.06758  0.63516
E83   E   0.43242  0.43242  0.86484
E84   E   0.43242  0.63516  0.06758
E85   E   0.43242  0.63516  0.06758
E86   E   0.43242  0.86484  0.43242
E87   E   0.47241  0.22241  0.60757
E88   E   0.47241  0.27759  0.89243
E89   E   0.47241  0.60757  0.22241
E90   E   0.47241  0.89243  0.27759
E91   E   0.48760  0.01240  0.80966
E92   E   0.48760  0.48760  0.69034
E93   E   0.48760  0.69034  0.48760
E94   E   0.48760  0.80966  0.01240
E95   E   0.48760  0.01240  0.80966
E96   E   0.48760  0.48760  0.69034
E97   E   0.48760  0.69034  0.48760
E98   E   0.48760  0.80966  0.01240
E99   E   0.50000  0.13516  0.86484
E100  E   0.50000  0.13516  0.86484
E101  E   0.50000  0.36484  0.63516
E102  E   0.50000  0.36484  0.63516
E103  E   0.50000  0.63516  0.36484
E104  E   0.50000  0.63516  0.36484
E105  E   0.50000  0.86484  0.13516
E106  E   0.50000  0.86484  0.13516
E107  E   0.51240  0.19034  0.98760
E108  E   0.51240  0.30966  0.51240
E109  E   0.51240  0.51240  0.30966
E110  E   0.51240  0.98760  0.19034
E111  E   0.52759  0.10757  0.72241
E112  E   0.52759  0.39243  0.77759
E113  E   0.52759  0.72241  0.10757
E114  E   0.52759  0.77759  0.39243
E115  E   0.56758  0.13516  0.56758
E116  E   0.56758  0.36484  0.93242
E117  E   0.56758  0.56758  0.13516
E118  E   0.56758  0.93242  0.36484
E119  E   0.57998  0.12276  0.12276
E120  E   0.57998  0.37724  0.37724
E121  E   0.60757  0.02759  0.27759
E122  E   0.60757  0.22241  0.47241
E123  E   0.60757  0.27759  0.02759
E124  E   0.60757  0.47241  0.22241
E125  E   0.62276  0.07998  0.87724
E126  E   0.62276  0.42002  0.62276
E127  E   0.62276  0.62276  0.42002
E128  E   0.62276  0.87724  0.07998
E129  E   0.63516  0.00000  0.13516
E130  E   0.63516  0.00000  0.13516
E131  E   0.63516  0.06758  0.43242
E132  E   0.63516  0.06758  0.43242
E133  E   0.63516  0.13516  0.00000
E134  E   0.63516  0.13516  0.00000
E135  E   0.63516  0.36484  0.50000
E136  E   0.63516  0.36484  0.50000
E137  E   0.63516  0.43242  0.06758
E138  E   0.63516  0.43242  0.06758
E139  E   0.63516  0.50000  0.36484
E140  E   0.63516  0.50000  0.36484
E141  E   0.69034  0.01240  0.01240
E142  E   0.69034  0.01240  0.01240
E143  E   0.69034  0.48760  0.48760
E144  E   0.69034  0.48760  0.48760
E145  E   0.72241  0.10757  0.52759
E146  E   0.72241  0.39243  0.97241
E147  E   0.72241  0.52759  0.10757
E148  E   0.72241  0.97241  0.39243
E149  E   0.77759  0.10757  0.97241
E150  E   0.77759  0.39243  0.52759
E151  E   0.77759  0.52759  0.39243
E152  E   0.77759  0.97241  0.10757
E153  E   0.80966  0.01240  0.48760
E154  E   0.80966  0.01240  0.48760
E155  E   0.80966  0.48760  0.01240
E156  E   0.80966  0.48760  0.01240
E157  E   0.86484  0.00000  0.36484
E158  E   0.86484  0.00000  0.36484
E159  E   0.86484  0.06758  0.06758
E160  E   0.86484  0.06758  0.06758
E161  E   0.86484  0.13516  0.50000
E162  E   0.86484  0.13516  0.50000
E163  E   0.86484  0.36484  0.00000
E164  E   0.86484  0.36484  0.00000
E165  E   0.86484  0.43242  0.43242
E166  E   0.86484  0.50000  0.13516
E167  E   0.86484  0.50000  0.13516
E168  E   0.87724  0.07998  0.62276
E169  E   0.87724  0.42002  0.87724
E170  E   0.87724  0.62276  0.07998
E171  E   0.87724  0.87724  0.42002
E172  E   0.89243  0.02759  0.22241
E173  E   0.89243  0.22241  0.02759
E174  E   0.89243  0.27759  0.47241
E175  E   0.89243  0.47241  0.27759
E176  E   0.92002  0.12276  0.37724
E177  E   0.92002  0.37724  0.12276
E178  E   0.93242  0.13516  0.93242
E179  E   0.93242  0.36484  0.56758
E180  E   0.93242  0.56758  0.36484
E181  E   0.93242  0.93242  0.13516
E182  E   0.97241  0.10757  0.77759
E183  E   0.97241  0.39243  0.72241
E184  E   0.97241  0.72241  0.39243
E185  E   0.97241  0.77759  0.10757
E186  E   0.98760  0.19034  0.51240
E187  E   0.98760  0.30966  0.98760
E188  E   0.98760  0.51240  0.19034
E189  E   0.98760  0.98760  0.30966
loop_
