data_fvg_Fd-3m:2  hall_number: 526, V_con: 4, EC_con: 4
_audit_creation_date              2025-03-05
_audit_creation_method            'MOFbuilder_1.0'
_symmetry_space_group_name_H-M    'P1'
_symmetry_Int_Tables_number       1
_symmetry_cell_setting            triclinic
loop_
_symmetry_equiv_pos_as_xyz
  x,y,z
_cell_length_a                    68.28450000000001
_cell_length_b                    68.28450000000001
_cell_length_c                    68.28450000000001
_cell_angle_alpha                 90.0
_cell_angle_beta                  90.0
_cell_angle_gamma                 90.0
loop_
_atom_site_label
_atom_site_type_symbol
_atom_site_fract_x
_atom_site_fract_y
_atom_site_fract_z
V1    V   0.03033  0.32322  0.92678
V2    V   0.03033  0.32322  0.92678
V3    V   0.03033  0.42678  0.82322
V4    V   0.03033  0.42678  0.82322
V5    V   0.03033  0.82322  0.42678
V6    V   0.03033  0.82322  0.42678
V7    V   0.03033  0.92678  0.32322
V8    V   0.03033  0.92678  0.32322
V9    V   0.07322  0.07322  0.78033
V10   V   0.07322  0.17678  0.46967
V11   V   0.07322  0.28033  0.57322
V12   V   0.07322  0.46967  0.17678
V13   V   0.07322  0.57322  0.28033
V14   V   0.07322  0.67678  0.96967
V15   V   0.07322  0.78033  0.07322
V16   V   0.07322  0.96967  0.67678
V17   V   0.07322  0.07322  0.78033
V18   V   0.07322  0.17678  0.46967
V19   V   0.07322  0.28033  0.57322
V20   V   0.07322  0.46967  0.17678
V21   V   0.07322  0.57322  0.28033
V22   V   0.07322  0.67678  0.96967
V23   V   0.07322  0.78033  0.07322
V24   V   0.07322  0.96967  0.67678
V25   V   0.17678  0.07322  0.46967
V26   V   0.17678  0.07322  0.46967
V27   V   0.17678  0.17678  0.78033
V28   V   0.17678  0.28033  0.67678
V29   V   0.17678  0.28033  0.67678
V30   V   0.17678  0.46967  0.07322
V31   V   0.17678  0.46967  0.07322
V32   V   0.17678  0.57322  0.96967
V33   V   0.17678  0.57322  0.96967
V34   V   0.17678  0.67678  0.28033
V35   V   0.17678  0.67678  0.28033
V36   V   0.17678  0.78033  0.17678
V37   V   0.17678  0.96967  0.57322
V38   V   0.17678  0.96967  0.57322
V39   V   0.21967  0.32322  0.32322
V40   V   0.21967  0.42678  0.42678
V41   V   0.21967  0.82322  0.82322
V42   V   0.21967  0.82322  0.82322
V43   V   0.21967  0.92678  0.92678
V44   V   0.21967  0.92678  0.92678
V45   V   0.28033  0.07322  0.57322
V46   V   0.28033  0.07322  0.57322
V47   V   0.28033  0.17678  0.67678
V48   V   0.28033  0.17678  0.67678
V49   V   0.28033  0.57322  0.07322
V50   V   0.28033  0.57322  0.07322
V51   V   0.28033  0.67678  0.17678
V52   V   0.28033  0.67678  0.17678
V53   V   0.32322  0.03033  0.92678
V54   V   0.32322  0.03033  0.92678
V55   V   0.32322  0.21967  0.32322
V56   V   0.32322  0.32322  0.21967
V57   V   0.32322  0.42678  0.53033
V58   V   0.32322  0.53033  0.42678
V59   V   0.32322  0.71967  0.82322
V60   V   0.32322  0.71967  0.82322
V61   V   0.32322  0.82322  0.71967
V62   V   0.32322  0.82322  0.71967
V63   V   0.32322  0.92678  0.03033
V64   V   0.32322  0.92678  0.03033
V65   V   0.42678  0.03033  0.82322
V66   V   0.42678  0.03033  0.82322
V67   V   0.42678  0.21967  0.42678
V68   V   0.42678  0.32322  0.53033
V69   V   0.42678  0.42678  0.21967
V70   V   0.42678  0.53033  0.32322
V71   V   0.42678  0.71967  0.92678
V72   V   0.42678  0.71967  0.92678
V73   V   0.42678  0.82322  0.03033
V74   V   0.42678  0.82322  0.03033
V75   V   0.42678  0.92678  0.71967
V76   V   0.42678  0.92678  0.71967
V77   V   0.46967  0.07322  0.17678
V78   V   0.46967  0.07322  0.17678
V79   V   0.46967  0.17678  0.07322
V80   V   0.46967  0.17678  0.07322
V81   V   0.46967  0.57322  0.67678
V82   V   0.46967  0.57322  0.67678
V83   V   0.46967  0.67678  0.57322
V84   V   0.46967  0.67678  0.57322
V85   V   0.53033  0.32322  0.42678
V86   V   0.53033  0.42678  0.32322
V87   V   0.53033  0.82322  0.92678
V88   V   0.53033  0.82322  0.92678
V89   V   0.53033  0.92678  0.82322
V90   V   0.53033  0.92678  0.82322
V91   V   0.57322  0.07322  0.28033
V92   V   0.57322  0.17678  0.96967
V93   V   0.57322  0.28033  0.07322
V94   V   0.57322  0.46967  0.67678
V95   V   0.57322  0.57322  0.78033
V96   V   0.57322  0.67678  0.46967
V97   V   0.57322  0.78033  0.57322
V98   V   0.57322  0.96967  0.17678
V99   V   0.57322  0.07322  0.28033
V100  V   0.57322  0.17678  0.96967
V101  V   0.57322  0.28033  0.07322
V102  V   0.57322  0.46967  0.67678
V103  V   0.57322  0.57322  0.78033
V104  V   0.57322  0.67678  0.46967
V105  V   0.57322  0.78033  0.57322
V106  V   0.57322  0.96967  0.17678
V107  V   0.67678  0.07322  0.96967
V108  V   0.67678  0.17678  0.28033
V109  V   0.67678  0.28033  0.17678
V110  V   0.67678  0.46967  0.57322
V111  V   0.67678  0.57322  0.46967
V112  V   0.67678  0.67678  0.78033
V113  V   0.67678  0.78033  0.67678
V114  V   0.67678  0.96967  0.07322
V115  V   0.67678  0.07322  0.96967
V116  V   0.67678  0.17678  0.28033
V117  V   0.67678  0.28033  0.17678
V118  V   0.67678  0.46967  0.57322
V119  V   0.67678  0.57322  0.46967
V120  V   0.67678  0.67678  0.78033
V121  V   0.67678  0.78033  0.67678
V122  V   0.67678  0.96967  0.07322
V123  V   0.71967  0.32322  0.82322
V124  V   0.71967  0.32322  0.82322
V125  V   0.71967  0.42678  0.92678
V126  V   0.71967  0.42678  0.92678
V127  V   0.71967  0.82322  0.32322
V128  V   0.71967  0.82322  0.32322
V129  V   0.71967  0.92678  0.42678
V130  V   0.71967  0.92678  0.42678
V131  V   0.78033  0.07322  0.07322
V132  V   0.78033  0.07322  0.07322
V133  V   0.78033  0.17678  0.17678
V134  V   0.78033  0.57322  0.57322
V135  V   0.78033  0.57322  0.57322
V136  V   0.78033  0.67678  0.67678
V137  V   0.78033  0.67678  0.67678
V138  V   0.82322  0.03033  0.42678
V139  V   0.82322  0.21967  0.82322
V140  V   0.82322  0.32322  0.71967
V141  V   0.82322  0.42678  0.03033
V142  V   0.82322  0.53033  0.92678
V143  V   0.82322  0.71967  0.32322
V144  V   0.82322  0.82322  0.21967
V145  V   0.82322  0.92678  0.53033
V146  V   0.82322  0.03033  0.42678
V147  V   0.82322  0.21967  0.82322
V148  V   0.82322  0.32322  0.71967
V149  V   0.82322  0.42678  0.03033
V150  V   0.82322  0.53033  0.92678
V151  V   0.82322  0.71967  0.32322
V152  V   0.82322  0.82322  0.21967
V153  V   0.82322  0.92678  0.53033
V154  V   0.92678  0.03033  0.32322
V155  V   0.92678  0.21967  0.92678
V156  V   0.92678  0.32322  0.03033
V157  V   0.92678  0.42678  0.71967
V158  V   0.92678  0.53033  0.82322
V159  V   0.92678  0.71967  0.42678
V160  V   0.92678  0.82322  0.53033
V161  V   0.92678  0.92678  0.21967
V162  V   0.92678  0.03033  0.32322
V163  V   0.92678  0.21967  0.92678
V164  V   0.92678  0.32322  0.03033
V165  V   0.92678  0.42678  0.71967
V166  V   0.92678  0.53033  0.82322
V167  V   0.92678  0.71967  0.42678
V168  V   0.92678  0.82322  0.53033
V169  V   0.92678  0.92678  0.21967
V170  V   0.96967  0.07322  0.67678
V171  V   0.96967  0.07322  0.67678
V172  V   0.96967  0.17678  0.57322
V173  V   0.96967  0.17678  0.57322
V174  V   0.96967  0.57322  0.17678
V175  V   0.96967  0.57322  0.17678
V176  V   0.96967  0.67678  0.07322
V177  V   0.96967  0.67678  0.07322
EC1    EC   0.07322  0.07322  0.92677
EC2    EC   0.07322  0.17678  0.32323
EC3    EC   0.07322  0.32323  0.17678
EC4    EC   0.07322  0.42677  0.57322
EC5    EC   0.07322  0.57322  0.42677
EC6    EC   0.07322  0.67678  0.82323
EC7    EC   0.07322  0.82323  0.67678
EC8    EC   0.07322  0.92677  0.07322
EC9    EC   0.07322  0.07322  0.92677
EC10   EC   0.07322  0.17678  0.32323
EC11   EC   0.07322  0.32323  0.17678
EC12   EC   0.07322  0.42677  0.57322
EC13   EC   0.07322  0.57322  0.42677
EC14   EC   0.07322  0.67678  0.82323
EC15   EC   0.07322  0.82323  0.67678
EC16   EC   0.07322  0.92677  0.07322
EC17   EC   0.07323  0.32322  0.32322
EC18   EC   0.07323  0.42678  0.42678
EC19   EC   0.07323  0.82322  0.82322
EC20   EC   0.07323  0.82322  0.82322
EC21   EC   0.07323  0.92678  0.92678
EC22   EC   0.07323  0.92678  0.92678
EC23   EC   0.17677  0.32322  0.92678
EC24   EC   0.17677  0.32322  0.92678
EC25   EC   0.17677  0.42678  0.82322
EC26   EC   0.17677  0.42678  0.82322
EC27   EC   0.17677  0.82322  0.42678
EC28   EC   0.17677  0.82322  0.42678
EC29   EC   0.17677  0.92678  0.32322
EC30   EC   0.17677  0.92678  0.32322
EC31   EC   0.17678  0.07322  0.32323
EC32   EC   0.17678  0.07322  0.32323
EC33   EC   0.17678  0.17678  0.92677
EC34   EC   0.17678  0.32323  0.07322
EC35   EC   0.17678  0.32323  0.07322
EC36   EC   0.17678  0.42677  0.67678
EC37   EC   0.17678  0.42677  0.67678
EC38   EC   0.17678  0.57322  0.82323
EC39   EC   0.17678  0.57322  0.82323
EC40   EC   0.17678  0.67678  0.42677
EC41   EC   0.17678  0.67678  0.42677
EC42   EC   0.17678  0.82323  0.57322
EC43   EC   0.17678  0.82323  0.57322
EC44   EC   0.17678  0.92677  0.17678
EC45   EC   0.32322  0.07323  0.32322
EC46   EC   0.32322  0.17677  0.92678
EC47   EC   0.32322  0.17677  0.92678
EC48   EC   0.32322  0.32322  0.07323
EC49   EC   0.32322  0.42678  0.67677
EC50   EC   0.32322  0.57323  0.82322
EC51   EC   0.32322  0.57323  0.82322
EC52   EC   0.32322  0.67677  0.42678
EC53   EC   0.32322  0.82322  0.57323
EC54   EC   0.32322  0.82322  0.57323
EC55   EC   0.32322  0.92678  0.17677
EC56   EC   0.32322  0.92678  0.17677
EC57   EC   0.32323  0.07322  0.17678
EC58   EC   0.32323  0.07322  0.17678
EC59   EC   0.32323  0.17678  0.07322
EC60   EC   0.32323  0.17678  0.07322
EC61   EC   0.32323  0.57322  0.67678
EC62   EC   0.32323  0.57322  0.67678
EC63   EC   0.32323  0.67678  0.57322
EC64   EC   0.32323  0.67678  0.57322
EC65   EC   0.42677  0.07322  0.57322
EC66   EC   0.42677  0.07322  0.57322
EC67   EC   0.42677  0.17678  0.67678
EC68   EC   0.42677  0.17678  0.67678
EC69   EC   0.42677  0.57322  0.07322
EC70   EC   0.42677  0.57322  0.07322
EC71   EC   0.42677  0.67678  0.17678
EC72   EC   0.42677  0.67678  0.17678
EC73   EC   0.42678  0.07323  0.42678
EC74   EC   0.42678  0.17677  0.82322
EC75   EC   0.42678  0.17677  0.82322
EC76   EC   0.42678  0.32322  0.67677
EC77   EC   0.42678  0.42678  0.07323
EC78   EC   0.42678  0.57323  0.92678
EC79   EC   0.42678  0.57323  0.92678
EC80   EC   0.42678  0.67677  0.32322
EC81   EC   0.42678  0.82322  0.17677
EC82   EC   0.42678  0.82322  0.17677
EC83   EC   0.42678  0.92678  0.57323
EC84   EC   0.42678  0.92678  0.57323
EC85   EC   0.57322  0.07322  0.42677
EC86   EC   0.57322  0.17678  0.82323
EC87   EC   0.57322  0.32323  0.67678
EC88   EC   0.57322  0.42677  0.07322
EC89   EC   0.57322  0.57322  0.92677
EC90   EC   0.57322  0.67678  0.32323
EC91   EC   0.57322  0.82323  0.17678
EC92   EC   0.57322  0.92677  0.57322
EC93   EC   0.57322  0.07322  0.42677
EC94   EC   0.57322  0.17678  0.82323
EC95   EC   0.57322  0.32323  0.67678
EC96   EC   0.57322  0.42677  0.07322
EC97   EC   0.57322  0.57322  0.92677
EC98   EC   0.57322  0.67678  0.32323
EC99   EC   0.57322  0.82323  0.17678
EC100  EC   0.57322  0.92677  0.57322
EC101  EC   0.57323  0.32322  0.82322
EC102  EC   0.57323  0.32322  0.82322
EC103  EC   0.57323  0.42678  0.92678
EC104  EC   0.57323  0.42678  0.92678
EC105  EC   0.57323  0.82322  0.32322
EC106  EC   0.57323  0.82322  0.32322
EC107  EC   0.57323  0.92678  0.42678
EC108  EC   0.57323  0.92678  0.42678
EC109  EC   0.67677  0.32322  0.42678
EC110  EC   0.67677  0.42678  0.32322
EC111  EC   0.67677  0.82322  0.92678
EC112  EC   0.67677  0.82322  0.92678
EC113  EC   0.67677  0.92678  0.82322
EC114  EC   0.67677  0.92678  0.82322
EC115  EC   0.67678  0.07322  0.82323
EC116  EC   0.67678  0.17678  0.42677
EC117  EC   0.67678  0.32323  0.57322
EC118  EC   0.67678  0.42677  0.17678
EC119  EC   0.67678  0.57322  0.32323
EC120  EC   0.67678  0.67678  0.92677
EC121  EC   0.67678  0.82323  0.07322
EC122  EC   0.67678  0.92677  0.67678
EC123  EC   0.67678  0.07322  0.82323
EC124  EC   0.67678  0.17678  0.42677
EC125  EC   0.67678  0.32323  0.57322
EC126  EC   0.67678  0.42677  0.17678
EC127  EC   0.67678  0.57322  0.32323
EC128  EC   0.67678  0.67678  0.92677
EC129  EC   0.67678  0.82323  0.07322
EC130  EC   0.67678  0.92677  0.67678
EC131  EC   0.82322  0.07323  0.82322
EC132  EC   0.82322  0.17677  0.42678
EC133  EC   0.82322  0.32322  0.57323
EC134  EC   0.82322  0.42678  0.17677
EC135  EC   0.82322  0.57323  0.32322
EC136  EC   0.82322  0.67677  0.92678
EC137  EC   0.82322  0.82322  0.07323
EC138  EC   0.82322  0.92678  0.67677
EC139  EC   0.82322  0.07323  0.82322
EC140  EC   0.82322  0.17677  0.42678
EC141  EC   0.82322  0.32322  0.57323
EC142  EC   0.82322  0.42678  0.17677
EC143  EC   0.82322  0.57323  0.32322
EC144  EC   0.82322  0.67677  0.92678
EC145  EC   0.82322  0.82322  0.07323
EC146  EC   0.82322  0.92678  0.67677
EC147  EC   0.82323  0.07322  0.67678
EC148  EC   0.82323  0.07322  0.67678
EC149  EC   0.82323  0.17678  0.57322
EC150  EC   0.82323  0.17678  0.57322
EC151  EC   0.82323  0.57322  0.17678
EC152  EC   0.82323  0.57322  0.17678
EC153  EC   0.82323  0.67678  0.07322
EC154  EC   0.82323  0.67678  0.07322
EC155  EC   0.92677  0.07322  0.07322
EC156  EC   0.92677  0.07322  0.07322
EC157  EC   0.92677  0.17678  0.17678
EC158  EC   0.92677  0.57322  0.57322
EC159  EC   0.92677  0.57322  0.57322
EC160  EC   0.92677  0.67678  0.67678
EC161  EC   0.92677  0.67678  0.67678
EC162  EC   0.92678  0.07323  0.92678
EC163  EC   0.92678  0.17677  0.32322
EC164  EC   0.92678  0.32322  0.17677
EC165  EC   0.92678  0.42678  0.57323
EC166  EC   0.92678  0.57323  0.42678
EC167  EC   0.92678  0.67677  0.82322
EC168  EC   0.92678  0.82322  0.67677
EC169  EC   0.92678  0.92678  0.07323
EC170  EC   0.92678  0.07323  0.92678
EC171  EC   0.92678  0.17677  0.32322
EC172  EC   0.92678  0.32322  0.17677
EC173  EC   0.92678  0.42678  0.57323
EC174  EC   0.92678  0.57323  0.42678
EC175  EC   0.92678  0.67677  0.82322
EC176  EC   0.92678  0.82322  0.67677
EC177  EC   0.92678  0.92678  0.07323
E1    E   0.00000  0.07322  0.92678
E2    E   0.00000  0.07322  0.92678
E3    E   0.00000  0.17678  0.32322
E4    E   0.00000  0.32322  0.17678
E5    E   0.00000  0.42678  0.57322
E6    E   0.00000  0.42678  0.57322
E7    E   0.00000  0.57322  0.42678
E8    E   0.00000  0.57322  0.42678
E9    E   0.00000  0.67678  0.82322
E10   E   0.00000  0.67678  0.82322
E11   E   0.00000  0.82322  0.67678
E12   E   0.00000  0.82322  0.67678
E13   E   0.00000  0.92678  0.07322
E14   E   0.00000  0.92678  0.07322
E15   E   0.02145  0.02145  0.67678
E16   E   0.02145  0.07322  0.72855
E17   E   0.02145  0.17678  0.52145
E18   E   0.02145  0.22855  0.57322
E19   E   0.02145  0.52145  0.17678
E20   E   0.02145  0.57322  0.22855
E21   E   0.02145  0.67678  0.02145
E22   E   0.02145  0.72855  0.07322
E23   E   0.02145  0.02145  0.67678
E24   E   0.02145  0.07322  0.72855
E25   E   0.02145  0.17678  0.52145
E26   E   0.02145  0.22855  0.57322
E27   E   0.02145  0.52145  0.17678
E28   E   0.02145  0.57322  0.22855
E29   E   0.02145  0.67678  0.02145
E30   E   0.02145  0.72855  0.07322
E31   E   0.03033  0.37500  0.87500
E32   E   0.03033  0.87500  0.37500
E33   E   0.07322  0.00000  0.92678
E34   E   0.07322  0.02145  0.72855
E35   E   0.07322  0.02145  0.72855
E36   E   0.07322  0.07322  0.85355
E37   E   0.07322  0.17678  0.39645
E38   E   0.07322  0.22855  0.52145
E39   E   0.07322  0.22855  0.52145
E40   E   0.07322  0.25000  0.32322
E41   E   0.07322  0.32322  0.25000
E42   E   0.07322  0.35355  0.57322
E43   E   0.07322  0.39645  0.17678
E44   E   0.07322  0.42678  0.50000
E45   E   0.07322  0.50000  0.42678
E46   E   0.07322  0.52145  0.22855
E47   E   0.07322  0.52145  0.22855
E48   E   0.07322  0.57322  0.35355
E49   E   0.07322  0.67678  0.89645
E50   E   0.07322  0.72855  0.02145
E51   E   0.07322  0.72855  0.02145
E52   E   0.07322  0.75000  0.82322
E53   E   0.07322  0.82322  0.75000
E54   E   0.07322  0.85355  0.07322
E55   E   0.07322  0.89645  0.67678
E56   E   0.07322  0.92678  0.00000
E57   E   0.07322  0.07322  0.85355
E58   E   0.07322  0.17678  0.39645
E59   E   0.07322  0.35355  0.57322
E60   E   0.07322  0.39645  0.17678
E61   E   0.07322  0.57322  0.35355
E62   E   0.07322  0.67678  0.89645
E63   E   0.07322  0.85355  0.07322
E64   E   0.07322  0.89645  0.67678
E65   E   0.07322  0.00000  0.92678
E66   E   0.07322  0.25000  0.32322
E67   E   0.07322  0.32322  0.25000
E68   E   0.07322  0.42678  0.50000
E69   E   0.07322  0.50000  0.42678
E70   E   0.07322  0.75000  0.82322
E71   E   0.07322  0.82322  0.75000
E72   E   0.07322  0.92678  0.00000
E73   E   0.07323  0.37500  0.37500
E74   E   0.07323  0.87500  0.87500
E75   E   0.10355  0.32322  0.92678
E76   E   0.10355  0.32322  0.92678
E77   E   0.10355  0.42678  0.82322
E78   E   0.10355  0.42678  0.82322
E79   E   0.10355  0.82322  0.42678
E80   E   0.10355  0.82322  0.42678
E81   E   0.10355  0.92678  0.32322
E82   E   0.10355  0.92678  0.32322
E83   E   0.12500  0.12500  0.32323
E84   E   0.12500  0.12500  0.46967
E85   E   0.12500  0.12500  0.78033
E86   E   0.12500  0.12500  0.92677
E87   E   0.12500  0.28033  0.62500
E88   E   0.12500  0.32323  0.12500
E89   E   0.12500  0.42677  0.62500
E90   E   0.12500  0.46967  0.12500
E91   E   0.12500  0.62500  0.28033
E92   E   0.12500  0.62500  0.42677
E93   E   0.12500  0.62500  0.82323
E94   E   0.12500  0.62500  0.96967
E95   E   0.12500  0.78033  0.12500
E96   E   0.12500  0.82323  0.62500
E97   E   0.12500  0.92677  0.12500
E98   E   0.12500  0.96967  0.62500
E99   E   0.14645  0.32322  0.32322
E100  E   0.14645  0.42678  0.42678
E101  E   0.14645  0.82322  0.82322
E102  E   0.14645  0.82322  0.82322
E103  E   0.14645  0.92678  0.92678
E104  E   0.14645  0.92678  0.92678
E105  E   0.17677  0.37500  0.87500
E106  E   0.17677  0.87500  0.37500
E107  E   0.17678  0.00000  0.32322
E108  E   0.17678  0.02145  0.52145
E109  E   0.17678  0.02145  0.52145
E110  E   0.17678  0.07322  0.39645
E111  E   0.17678  0.07322  0.39645
E112  E   0.17678  0.17678  0.85355
E113  E   0.17678  0.22855  0.72855
E114  E   0.17678  0.22855  0.72855
E115  E   0.17678  0.25000  0.92678
E116  E   0.17678  0.25000  0.92678
E117  E   0.17678  0.32322  0.00000
E118  E   0.17678  0.35355  0.67678
E119  E   0.17678  0.35355  0.67678
E120  E   0.17678  0.39645  0.07322
E121  E   0.17678  0.39645  0.07322
E122  E   0.17678  0.42678  0.75000
E123  E   0.17678  0.50000  0.82322
E124  E   0.17678  0.50000  0.82322
E125  E   0.17678  0.52145  0.02145
E126  E   0.17678  0.52145  0.02145
E127  E   0.17678  0.57322  0.89645
E128  E   0.17678  0.57322  0.89645
E129  E   0.17678  0.67678  0.35355
E130  E   0.17678  0.67678  0.35355
E131  E   0.17678  0.72855  0.22855
E132  E   0.17678  0.72855  0.22855
E133  E   0.17678  0.75000  0.42678
E134  E   0.17678  0.82322  0.50000
E135  E   0.17678  0.82322  0.50000
E136  E   0.17678  0.85355  0.17678
E137  E   0.17678  0.89645  0.57322
E138  E   0.17678  0.89645  0.57322
E139  E   0.17678  0.92678  0.25000
E140  E   0.17678  0.92678  0.25000
E141  E   0.21967  0.37500  0.37500
E142  E   0.21967  0.87500  0.87500
E143  E   0.22855  0.02145  0.57322
E144  E   0.22855  0.07322  0.52145
E145  E   0.22855  0.17678  0.72855
E146  E   0.22855  0.22855  0.67678
E147  E   0.22855  0.52145  0.07322
E148  E   0.22855  0.57322  0.02145
E149  E   0.22855  0.67678  0.22855
E150  E   0.22855  0.72855  0.17678
E151  E   0.22855  0.02145  0.57322
E152  E   0.22855  0.07322  0.52145
E153  E   0.22855  0.17678  0.72855
E154  E   0.22855  0.22855  0.67678
E155  E   0.22855  0.52145  0.07322
E156  E   0.22855  0.57322  0.02145
E157  E   0.22855  0.67678  0.22855
E158  E   0.22855  0.72855  0.17678
E159  E   0.25000  0.07322  0.32322
E160  E   0.25000  0.07322  0.32322
E161  E   0.25000  0.17678  0.92678
E162  E   0.25000  0.17678  0.92678
E163  E   0.25000  0.32322  0.07322
E164  E   0.25000  0.32322  0.07322
E165  E   0.25000  0.42678  0.67678
E166  E   0.25000  0.42678  0.67678
E167  E   0.25000  0.57322  0.82322
E168  E   0.25000  0.57322  0.82322
E169  E   0.25000  0.67678  0.42678
E170  E   0.25000  0.67678  0.42678
E171  E   0.25000  0.82322  0.57322
E172  E   0.25000  0.82322  0.57322
E173  E   0.25000  0.92678  0.17678
E174  E   0.25000  0.92678  0.17678
E175  E   0.27145  0.27145  0.32322
E176  E   0.27145  0.32322  0.27145
E177  E   0.27145  0.42678  0.47855
E178  E   0.27145  0.47855  0.42678
E179  E   0.27145  0.77145  0.82322
E180  E   0.27145  0.82322  0.77145
E181  E   0.27145  0.92678  0.97855
E182  E   0.27145  0.97855  0.92678
E183  E   0.28033  0.12500  0.62500
E184  E   0.28033  0.62500  0.12500
E185  E   0.32322  0.00000  0.17678
E186  E   0.32322  0.07322  0.25000
E187  E   0.32322  0.07322  0.25000
E188  E   0.32322  0.10355  0.92678
E189  E   0.32322  0.10355  0.92678
E190  E   0.32322  0.14645  0.32322
E191  E   0.32322  0.17678  0.00000
E192  E   0.32322  0.25000  0.07322
E193  E   0.32322  0.25000  0.07322
E194  E   0.32322  0.27145  0.27145
E195  E   0.32322  0.32322  0.14645
E196  E   0.32322  0.42678  0.60355
E197  E   0.32322  0.47855  0.47855
E198  E   0.32322  0.50000  0.67678
E199  E   0.32322  0.50000  0.67678
E200  E   0.32322  0.57322  0.75000
E201  E   0.32322  0.57322  0.75000
E202  E   0.32322  0.60355  0.42678
E203  E   0.32322  0.64645  0.82322
E204  E   0.32322  0.64645  0.82322
E205  E   0.32322  0.67678  0.50000
E206  E   0.32322  0.67678  0.50000
E207  E   0.32322  0.75000  0.57322
E208  E   0.32322  0.75000  0.57322
E209  E   0.32322  0.77145  0.77145
E210  E   0.32322  0.82322  0.64645
E211  E   0.32322  0.82322  0.64645
E212  E   0.32322  0.92678  0.10355
E213  E   0.32322  0.92678  0.10355
E214  E   0.32322  0.97855  0.97855
E215  E   0.32323  0.12500  0.12500
E216  E   0.32323  0.62500  0.62500
E217  E   0.35355  0.07322  0.57322
E218  E   0.35355  0.07322  0.57322
E219  E   0.35355  0.17678  0.67678
E220  E   0.35355  0.17678  0.67678
E221  E   0.35355  0.57322  0.07322
E222  E   0.35355  0.57322  0.07322
E223  E   0.35355  0.67678  0.17678
E224  E   0.35355  0.67678  0.17678
E225  E   0.37500  0.03033  0.87500
E226  E   0.37500  0.07323  0.37500
E227  E   0.37500  0.17677  0.87500
E228  E   0.37500  0.21967  0.37500
E229  E   0.37500  0.37500  0.07323
E230  E   0.37500  0.37500  0.21967
E231  E   0.37500  0.37500  0.53033
E232  E   0.37500  0.37500  0.67677
E233  E   0.37500  0.53033  0.37500
E234  E   0.37500  0.57323  0.87500
E235  E   0.37500  0.67677  0.37500
E236  E   0.37500  0.71967  0.87500
E237  E   0.37500  0.87500  0.03033
E238  E   0.37500  0.87500  0.17677
E239  E   0.37500  0.87500  0.57323
E240  E   0.37500  0.87500  0.71967
E241  E   0.39645  0.07322  0.17678
E242  E   0.39645  0.07322  0.17678
E243  E   0.39645  0.17678  0.07322
E244  E   0.39645  0.17678  0.07322
E245  E   0.39645  0.57322  0.67678
E246  E   0.39645  0.57322  0.67678
E247  E   0.39645  0.67678  0.57322
E248  E   0.39645  0.67678  0.57322
E249  E   0.42677  0.12500  0.62500
E250  E   0.42677  0.62500  0.12500
E251  E   0.42678  0.00000  0.57322
E252  E   0.42678  0.00000  0.57322
E253  E   0.42678  0.07322  0.50000
E254  E   0.42678  0.07322  0.50000
E255  E   0.42678  0.10355  0.82322
E256  E   0.42678  0.10355  0.82322
E257  E   0.42678  0.14645  0.42678
E258  E   0.42678  0.17678  0.75000
E259  E   0.42678  0.25000  0.67678
E260  E   0.42678  0.25000  0.67678
E261  E   0.42678  0.27145  0.47855
E262  E   0.42678  0.32322  0.60355
E263  E   0.42678  0.42678  0.14645
E264  E   0.42678  0.47855  0.27145
E265  E   0.42678  0.50000  0.07322
E266  E   0.42678  0.50000  0.07322
E267  E   0.42678  0.57322  0.00000
E268  E   0.42678  0.57322  0.00000
E269  E   0.42678  0.60355  0.32322
E270  E   0.42678  0.64645  0.92678
E271  E   0.42678  0.64645  0.92678
E272  E   0.42678  0.67678  0.25000
E273  E   0.42678  0.67678  0.25000
E274  E   0.42678  0.75000  0.17678
E275  E   0.42678  0.77145  0.97855
E276  E   0.42678  0.82322  0.10355
E277  E   0.42678  0.82322  0.10355
E278  E   0.42678  0.92678  0.64645
E279  E   0.42678  0.92678  0.64645
E280  E   0.42678  0.97855  0.77145
E281  E   0.46967  0.12500  0.12500
E282  E   0.46967  0.62500  0.62500
E283  E   0.47855  0.27145  0.42678
E284  E   0.47855  0.32322  0.47855
E285  E   0.47855  0.42678  0.27145
E286  E   0.47855  0.47855  0.32322
E287  E   0.47855  0.77145  0.92678
E288  E   0.47855  0.82322  0.97855
E289  E   0.47855  0.92678  0.77145
E290  E   0.47855  0.97855  0.82322
E291  E   0.50000  0.07322  0.42678
E292  E   0.50000  0.07322  0.42678
E293  E   0.50000  0.17678  0.82322
E294  E   0.50000  0.17678  0.82322
E295  E   0.50000  0.32322  0.67678
E296  E   0.50000  0.32322  0.67678
E297  E   0.50000  0.42678  0.07322
E298  E   0.50000  0.42678  0.07322
E299  E   0.50000  0.57322  0.92678
E300  E   0.50000  0.57322  0.92678
E301  E   0.50000  0.67678  0.32322
E302  E   0.50000  0.67678  0.32322
E303  E   0.50000  0.82322  0.17678
E304  E   0.50000  0.82322  0.17678
E305  E   0.50000  0.92678  0.57322
E306  E   0.50000  0.92678  0.57322
E307  E   0.52145  0.02145  0.17678
E308  E   0.52145  0.02145  0.17678
E309  E   0.52145  0.07322  0.22855
E310  E   0.52145  0.07322  0.22855
E311  E   0.52145  0.17678  0.02145
E312  E   0.52145  0.17678  0.02145
E313  E   0.52145  0.22855  0.07322
E314  E   0.52145  0.22855  0.07322
E315  E   0.52145  0.52145  0.67678
E316  E   0.52145  0.57322  0.72855
E317  E   0.52145  0.67678  0.52145
E318  E   0.52145  0.72855  0.57322
E319  E   0.53033  0.37500  0.37500
E320  E   0.53033  0.87500  0.87500
E321  E   0.57322  0.00000  0.42678
E322  E   0.57322  0.02145  0.22855
E323  E   0.57322  0.02145  0.22855
E324  E   0.57322  0.07322  0.35355
E325  E   0.57322  0.17678  0.89645
E326  E   0.57322  0.22855  0.02145
E327  E   0.57322  0.22855  0.02145
E328  E   0.57322  0.25000  0.82322
E329  E   0.57322  0.32322  0.75000
E330  E   0.57322  0.35355  0.07322
E331  E   0.57322  0.39645  0.67678
E332  E   0.57322  0.42678  0.00000
E333  E   0.57322  0.50000  0.92678
E334  E   0.57322  0.52145  0.72855
E335  E   0.57322  0.57322  0.85355
E336  E   0.57322  0.67678  0.39645
E337  E   0.57322  0.72855  0.52145
E338  E   0.57322  0.75000  0.32322
E339  E   0.57322  0.82322  0.25000
E340  E   0.57322  0.85355  0.57322
E341  E   0.57322  0.89645  0.17678
E342  E   0.57322  0.92678  0.50000
E343  E   0.57322  0.00000  0.42678
E344  E   0.57322  0.07322  0.35355
E345  E   0.57322  0.17678  0.89645
E346  E   0.57322  0.25000  0.82322
E347  E   0.57322  0.32322  0.75000
E348  E   0.57322  0.35355  0.07322
E349  E   0.57322  0.39645  0.67678
E350  E   0.57322  0.42678  0.00000
E351  E   0.57322  0.50000  0.92678
E352  E   0.57322  0.57322  0.85355
E353  E   0.57322  0.67678  0.39645
E354  E   0.57322  0.75000  0.32322
E355  E   0.57322  0.82322  0.25000
E356  E   0.57322  0.85355  0.57322
E357  E   0.57322  0.89645  0.17678
E358  E   0.57322  0.92678  0.50000
E359  E   0.57323  0.37500  0.87500
E360  E   0.57323  0.87500  0.37500
E361  E   0.60355  0.32322  0.42678
E362  E   0.60355  0.42678  0.32322
E363  E   0.60355  0.82322  0.92678
E364  E   0.60355  0.82322  0.92678
E365  E   0.60355  0.92678  0.82322
E366  E   0.60355  0.92678  0.82322
E367  E   0.62500  0.12500  0.28033
E368  E   0.62500  0.12500  0.42677
E369  E   0.62500  0.12500  0.82323
E370  E   0.62500  0.12500  0.96967
E371  E   0.62500  0.28033  0.12500
E372  E   0.62500  0.32323  0.62500
E373  E   0.62500  0.42677  0.12500
E374  E   0.62500  0.46967  0.62500
E375  E   0.62500  0.62500  0.32323
E376  E   0.62500  0.62500  0.46967
E377  E   0.62500  0.62500  0.78033
E378  E   0.62500  0.62500  0.92677
E379  E   0.62500  0.78033  0.62500
E380  E   0.62500  0.82323  0.12500
E381  E   0.62500  0.92677  0.62500
E382  E   0.62500  0.96967  0.12500
E383  E   0.64645  0.32322  0.82322
E384  E   0.64645  0.32322  0.82322
E385  E   0.64645  0.42678  0.92678
E386  E   0.64645  0.42678  0.92678
E387  E   0.64645  0.82322  0.32322
E388  E   0.64645  0.82322  0.32322
E389  E   0.64645  0.92678  0.42678
E390  E   0.64645  0.92678  0.42678
E391  E   0.67677  0.37500  0.37500
E392  E   0.67677  0.87500  0.87500
E393  E   0.67678  0.00000  0.82322
E394  E   0.67678  0.07322  0.89645
E395  E   0.67678  0.17678  0.35355
E396  E   0.67678  0.25000  0.42678
E397  E   0.67678  0.32322  0.50000
E398  E   0.67678  0.35355  0.17678
E399  E   0.67678  0.39645  0.57322
E400  E   0.67678  0.42678  0.25000
E401  E   0.67678  0.50000  0.32322
E402  E   0.67678  0.57322  0.39645
E403  E   0.67678  0.67678  0.85355
E404  E   0.67678  0.75000  0.92678
E405  E   0.67678  0.82322  0.00000
E406  E   0.67678  0.85355  0.67678
E407  E   0.67678  0.89645  0.07322
E408  E   0.67678  0.92678  0.75000
E409  E   0.67678  0.00000  0.82322
E410  E   0.67678  0.02145  0.02145
E411  E   0.67678  0.02145  0.02145
E412  E   0.67678  0.07322  0.89645
E413  E   0.67678  0.17678  0.35355
E414  E   0.67678  0.22855  0.22855
E415  E   0.67678  0.22855  0.22855
E416  E   0.67678  0.25000  0.42678
E417  E   0.67678  0.32322  0.50000
E418  E   0.67678  0.35355  0.17678
E419  E   0.67678  0.39645  0.57322
E420  E   0.67678  0.42678  0.25000
E421  E   0.67678  0.50000  0.32322
E422  E   0.67678  0.52145  0.52145
E423  E   0.67678  0.57322  0.39645
E424  E   0.67678  0.67678  0.85355
E425  E   0.67678  0.72855  0.72855
E426  E   0.67678  0.75000  0.92678
E427  E   0.67678  0.82322  0.00000
E428  E   0.67678  0.85355  0.67678
E429  E   0.67678  0.89645  0.07322
E430  E   0.67678  0.92678  0.75000
E431  E   0.71967  0.37500  0.87500
E432  E   0.71967  0.87500  0.37500
E433  E   0.72855  0.02145  0.07322
E434  E   0.72855  0.02145  0.07322
E435  E   0.72855  0.07322  0.02145
E436  E   0.72855  0.07322  0.02145
E437  E   0.72855  0.17678  0.22855
E438  E   0.72855  0.17678  0.22855
E439  E   0.72855  0.22855  0.17678
E440  E   0.72855  0.22855  0.17678
E441  E   0.72855  0.52145  0.57322
E442  E   0.72855  0.57322  0.52145
E443  E   0.72855  0.67678  0.72855
E444  E   0.72855  0.72855  0.67678
E445  E   0.75000  0.07322  0.82322
E446  E   0.75000  0.07322  0.82322
E447  E   0.75000  0.17678  0.42678
E448  E   0.75000  0.32322  0.57322
E449  E   0.75000  0.32322  0.57322
E450  E   0.75000  0.42678  0.17678
E451  E   0.75000  0.57322  0.32322
E452  E   0.75000  0.57322  0.32322
E453  E   0.75000  0.67678  0.92678
E454  E   0.75000  0.67678  0.92678
E455  E   0.75000  0.82322  0.07322
E456  E   0.75000  0.82322  0.07322
E457  E   0.75000  0.92678  0.67678
E458  E   0.75000  0.92678  0.67678
E459  E   0.77145  0.27145  0.82322
E460  E   0.77145  0.32322  0.77145
E461  E   0.77145  0.42678  0.97855
E462  E   0.77145  0.47855  0.92678
E463  E   0.77145  0.77145  0.32322
E464  E   0.77145  0.82322  0.27145
E465  E   0.77145  0.92678  0.47855
E466  E   0.77145  0.97855  0.42678
E467  E   0.78033  0.12500  0.12500
E468  E   0.78033  0.62500  0.62500
E469  E   0.82322  0.00000  0.67678
E470  E   0.82322  0.07322  0.75000
E471  E   0.82322  0.10355  0.42678
E472  E   0.82322  0.14645  0.82322
E473  E   0.82322  0.17678  0.50000
E474  E   0.82322  0.25000  0.57322
E475  E   0.82322  0.27145  0.77145
E476  E   0.82322  0.32322  0.64645
E477  E   0.82322  0.42678  0.10355
E478  E   0.82322  0.47855  0.97855
E479  E   0.82322  0.50000  0.17678
E480  E   0.82322  0.57322  0.25000
E481  E   0.82322  0.60355  0.92678
E482  E   0.82322  0.64645  0.32322
E483  E   0.82322  0.67678  0.00000
E484  E   0.82322  0.75000  0.07322
E485  E   0.82322  0.77145  0.27145
E486  E   0.82322  0.82322  0.14645
E487  E   0.82322  0.92678  0.60355
E488  E   0.82322  0.97855  0.47855
E489  E   0.82322  0.00000  0.67678
E490  E   0.82322  0.07322  0.75000
E491  E   0.82322  0.10355  0.42678
E492  E   0.82322  0.14645  0.82322
E493  E   0.82322  0.17678  0.50000
E494  E   0.82322  0.25000  0.57322
E495  E   0.82322  0.32322  0.64645
E496  E   0.82322  0.42678  0.10355
E497  E   0.82322  0.50000  0.17678
E498  E   0.82322  0.57322  0.25000
E499  E   0.82322  0.60355  0.92678
E500  E   0.82322  0.64645  0.32322
E501  E   0.82322  0.67678  0.00000
E502  E   0.82322  0.75000  0.07322
E503  E   0.82322  0.82322  0.14645
E504  E   0.82322  0.92678  0.60355
E505  E   0.82323  0.12500  0.62500
E506  E   0.82323  0.62500  0.12500
E507  E   0.85355  0.07322  0.07322
E508  E   0.85355  0.07322  0.07322
E509  E   0.85355  0.17678  0.17678
E510  E   0.85355  0.57322  0.57322
E511  E   0.85355  0.57322  0.57322
E512  E   0.85355  0.67678  0.67678
E513  E   0.85355  0.67678  0.67678
E514  E   0.87500  0.03033  0.37500
E515  E   0.87500  0.07323  0.87500
E516  E   0.87500  0.17677  0.37500
E517  E   0.87500  0.21967  0.87500
E518  E   0.87500  0.37500  0.03033
E519  E   0.87500  0.37500  0.17677
E520  E   0.87500  0.37500  0.57323
E521  E   0.87500  0.37500  0.71967
E522  E   0.87500  0.53033  0.87500
E523  E   0.87500  0.57323  0.37500
E524  E   0.87500  0.67677  0.87500
E525  E   0.87500  0.71967  0.37500
E526  E   0.87500  0.87500  0.07323
E527  E   0.87500  0.87500  0.21967
E528  E   0.87500  0.87500  0.53033
E529  E   0.87500  0.87500  0.67677
E530  E   0.89645  0.07322  0.67678
E531  E   0.89645  0.07322  0.67678
E532  E   0.89645  0.17678  0.57322
E533  E   0.89645  0.17678  0.57322
E534  E   0.89645  0.57322  0.17678
E535  E   0.89645  0.57322  0.17678
E536  E   0.89645  0.67678  0.07322
E537  E   0.89645  0.67678  0.07322
E538  E   0.92677  0.12500  0.12500
E539  E   0.92677  0.62500  0.62500
E540  E   0.92678  0.00000  0.07322
E541  E   0.92678  0.07322  0.00000
E542  E   0.92678  0.10355  0.32322
E543  E   0.92678  0.14645  0.92678
E544  E   0.92678  0.17678  0.25000
E545  E   0.92678  0.25000  0.17678
E546  E   0.92678  0.32322  0.10355
E547  E   0.92678  0.42678  0.64645
E548  E   0.92678  0.50000  0.57322
E549  E   0.92678  0.57322  0.50000
E550  E   0.92678  0.60355  0.82322
E551  E   0.92678  0.64645  0.42678
E552  E   0.92678  0.67678  0.75000
E553  E   0.92678  0.75000  0.67678
E554  E   0.92678  0.82322  0.60355
E555  E   0.92678  0.92678  0.14645
E556  E   0.92678  0.00000  0.07322
E557  E   0.92678  0.07322  0.00000
E558  E   0.92678  0.10355  0.32322
E559  E   0.92678  0.14645  0.92678
E560  E   0.92678  0.17678  0.25000
E561  E   0.92678  0.25000  0.17678
E562  E   0.92678  0.27145  0.97855
E563  E   0.92678  0.32322  0.10355
E564  E   0.92678  0.42678  0.64645
E565  E   0.92678  0.47855  0.77145
E566  E   0.92678  0.50000  0.57322
E567  E   0.92678  0.57322  0.50000
E568  E   0.92678  0.60355  0.82322
E569  E   0.92678  0.64645  0.42678
E570  E   0.92678  0.67678  0.75000
E571  E   0.92678  0.75000  0.67678
E572  E   0.92678  0.77145  0.47855
E573  E   0.92678  0.82322  0.60355
E574  E   0.92678  0.92678  0.14645
E575  E   0.92678  0.97855  0.27145
E576  E   0.96967  0.12500  0.62500
E577  E   0.96967  0.62500  0.12500
E578  E   0.97855  0.27145  0.92678
E579  E   0.97855  0.32322  0.97855
E580  E   0.97855  0.42678  0.77145
E581  E   0.97855  0.47855  0.82322
E582  E   0.97855  0.77145  0.42678
E583  E   0.97855  0.82322  0.47855
E584  E   0.97855  0.92678  0.27145
E585  E   0.97855  0.97855  0.32322
loop_
