data_fvi_Pm-3n  hall_number: 520, V_con: 4, EC_con: 4
_audit_creation_date              2025-03-05
_audit_creation_method            'MOFbuilder_1.0'
_symmetry_space_group_name_H-M    'P1'
_symmetry_Int_Tables_number       1
_symmetry_cell_setting            triclinic
loop_
_symmetry_equiv_pos_as_xyz
  x,y,z
_cell_length_a                    52.7232
_cell_length_b                    52.7232
_cell_length_c                    52.7232
_cell_angle_alpha                 90.0
_cell_angle_beta                  90.0
_cell_angle_gamma                 90.0
loop_
_atom_site_label
_atom_site_type_symbol
_atom_site_fract_x
_atom_site_fract_y
_atom_site_fract_z
V1    V   0.00000  0.09484  0.40516
V2    V   0.00000  0.09484  0.59484
V3    V   0.00000  0.90516  0.40516
V4    V   0.00000  0.90516  0.59484
V5    V   0.09484  0.40516  0.50000
V6    V   0.09484  0.59484  0.50000
V7    V   0.09484  0.40516  0.00000
V8    V   0.09484  0.59484  0.00000
V9    V   0.40516  0.00000  0.09484
V10   V   0.40516  0.00000  0.90516
V11   V   0.40516  0.50000  0.09484
V12   V   0.40516  0.50000  0.90516
V13   V   0.50000  0.09484  0.40516
V14   V   0.50000  0.09484  0.59484
V15   V   0.50000  0.90516  0.40516
V16   V   0.50000  0.90516  0.59484
V17   V   0.59484  0.00000  0.09484
V18   V   0.59484  0.00000  0.90516
V19   V   0.59484  0.50000  0.09484
V20   V   0.59484  0.50000  0.90516
V21   V   0.90516  0.40516  0.00000
V22   V   0.90516  0.40516  0.50000
V23   V   0.90516  0.59484  0.00000
V24   V   0.90516  0.59484  0.50000
EC1    EC   0.09483  0.32713  0.32713
EC2    EC   0.09483  0.32713  0.67287
EC3    EC   0.09483  0.67287  0.32713
EC4    EC   0.09483  0.67287  0.67287
EC5    EC   0.17287  0.17287  0.40517
EC6    EC   0.17287  0.17287  0.59483
EC7    EC   0.17287  0.40517  0.17287
EC8    EC   0.17287  0.40517  0.82713
EC9    EC   0.17287  0.59483  0.17287
EC10   EC   0.17287  0.59483  0.82713
EC11   EC   0.17287  0.82713  0.40517
EC12   EC   0.17287  0.82713  0.59483
EC13   EC   0.32713  0.09483  0.32713
EC14   EC   0.32713  0.09483  0.67287
EC15   EC   0.32713  0.32713  0.09483
EC16   EC   0.32713  0.32713  0.90517
EC17   EC   0.32713  0.67287  0.09483
EC18   EC   0.32713  0.67287  0.90517
EC19   EC   0.32713  0.90517  0.32713
EC20   EC   0.32713  0.90517  0.67287
EC21   EC   0.40517  0.17287  0.17287
EC22   EC   0.40517  0.17287  0.82713
EC23   EC   0.40517  0.82713  0.17287
EC24   EC   0.40517  0.82713  0.82713
EC25   EC   0.59483  0.17287  0.17287
EC26   EC   0.59483  0.17287  0.82713
EC27   EC   0.59483  0.82713  0.17287
EC28   EC   0.59483  0.82713  0.82713
EC29   EC   0.67287  0.09483  0.32713
EC30   EC   0.67287  0.09483  0.67287
EC31   EC   0.67287  0.32713  0.09483
EC32   EC   0.67287  0.32713  0.90517
EC33   EC   0.67287  0.67287  0.09483
EC34   EC   0.67287  0.67287  0.90517
EC35   EC   0.67287  0.90517  0.32713
EC36   EC   0.67287  0.90517  0.67287
EC37   EC   0.82713  0.17287  0.40517
EC38   EC   0.82713  0.17287  0.59483
EC39   EC   0.82713  0.40517  0.17287
EC40   EC   0.82713  0.40517  0.82713
EC41   EC   0.82713  0.59483  0.17287
EC42   EC   0.82713  0.59483  0.82713
EC43   EC   0.82713  0.82713  0.40517
EC44   EC   0.82713  0.82713  0.59483
EC45   EC   0.90517  0.32713  0.32713
EC46   EC   0.90517  0.32713  0.67287
EC47   EC   0.90517  0.67287  0.32713
EC48   EC   0.90517  0.67287  0.67287
E1    E   0.00000  0.00000  0.40516
E2    E   0.00000  0.00000  0.59484
E3    E   0.00000  0.09484  0.50000
E4    E   0.00000  0.32713  0.32713
E5    E   0.00000  0.32713  0.67287
E6    E   0.00000  0.40516  0.00000
E7    E   0.00000  0.40516  0.50000
E8    E   0.00000  0.59484  0.00000
E9    E   0.00000  0.59484  0.50000
E10   E   0.00000  0.67287  0.32713
E11   E   0.00000  0.67287  0.67287
E12   E   0.00000  0.90516  0.50000
E13   E   0.08644  0.13385  0.40517
E14   E   0.08644  0.13385  0.59483
E15   E   0.08644  0.86615  0.40517
E16   E   0.08644  0.86615  0.59483
E17   E   0.09483  0.36615  0.41356
E18   E   0.09483  0.36615  0.58644
E19   E   0.09483  0.63385  0.41356
E20   E   0.09483  0.63385  0.58644
E21   E   0.09484  0.50000  0.50000
E22   E   0.09484  0.50000  0.00000
E23   E   0.13385  0.25000  0.36615
E24   E   0.13385  0.25000  0.63385
E25   E   0.13385  0.36615  0.25000
E26   E   0.13385  0.36615  0.75000
E27   E   0.13385  0.40517  0.08644
E28   E   0.13385  0.40517  0.91356
E29   E   0.13385  0.59483  0.08644
E30   E   0.13385  0.59483  0.91356
E31   E   0.13385  0.63385  0.25000
E32   E   0.13385  0.63385  0.75000
E33   E   0.13385  0.75000  0.36615
E34   E   0.13385  0.75000  0.63385
E35   E   0.13385  0.25000  0.36615
E36   E   0.13385  0.25000  0.63385
E37   E   0.13385  0.36615  0.25000
E38   E   0.13385  0.36615  0.75000
E39   E   0.13385  0.63385  0.25000
E40   E   0.13385  0.63385  0.75000
E41   E   0.13385  0.75000  0.36615
E42   E   0.13385  0.75000  0.63385
E43   E   0.17287  0.17287  0.50000
E44   E   0.17287  0.50000  0.17287
E45   E   0.17287  0.50000  0.82713
E46   E   0.17287  0.82713  0.50000
E47   E   0.25000  0.13385  0.36615
E48   E   0.25000  0.13385  0.63385
E49   E   0.25000  0.13385  0.36615
E50   E   0.25000  0.13385  0.63385
E51   E   0.25000  0.36615  0.13385
E52   E   0.25000  0.36615  0.13385
E53   E   0.25000  0.36615  0.86615
E54   E   0.25000  0.63385  0.13385
E55   E   0.25000  0.63385  0.13385
E56   E   0.25000  0.63385  0.86615
E57   E   0.25000  0.86615  0.36615
E58   E   0.25000  0.86615  0.63385
E59   E   0.32713  0.00000  0.32713
E60   E   0.32713  0.00000  0.67287
E61   E   0.32713  0.32713  0.00000
E62   E   0.32713  0.67287  0.00000
E63   E   0.36615  0.13385  0.25000
E64   E   0.36615  0.13385  0.75000
E65   E   0.36615  0.13385  0.25000
E66   E   0.36615  0.13385  0.75000
E67   E   0.36615  0.25000  0.13385
E68   E   0.36615  0.25000  0.13385
E69   E   0.36615  0.25000  0.86615
E70   E   0.36615  0.41356  0.09483
E71   E   0.36615  0.41356  0.90517
E72   E   0.36615  0.58644  0.09483
E73   E   0.36615  0.58644  0.90517
E74   E   0.36615  0.75000  0.13385
E75   E   0.36615  0.75000  0.13385
E76   E   0.36615  0.75000  0.86615
E77   E   0.36615  0.86615  0.25000
E78   E   0.36615  0.86615  0.75000
E79   E   0.40516  0.00000  0.00000
E80   E   0.40516  0.50000  0.00000
E81   E   0.40517  0.08644  0.13385
E82   E   0.40517  0.08644  0.86615
E83   E   0.40517  0.91356  0.13385
E84   E   0.40517  0.91356  0.86615
E85   E   0.41356  0.09483  0.36615
E86   E   0.41356  0.09483  0.63385
E87   E   0.41356  0.90517  0.36615
E88   E   0.41356  0.90517  0.63385
E89   E   0.50000  0.00000  0.09484
E90   E   0.50000  0.00000  0.40516
E91   E   0.50000  0.00000  0.59484
E92   E   0.50000  0.00000  0.90516
E93   E   0.50000  0.09484  0.50000
E94   E   0.50000  0.17287  0.17287
E95   E   0.50000  0.17287  0.82713
E96   E   0.50000  0.50000  0.09484
E97   E   0.50000  0.50000  0.90516
E98   E   0.50000  0.82713  0.17287
E99   E   0.50000  0.82713  0.82713
E100  E   0.50000  0.90516  0.50000
E101  E   0.58644  0.09483  0.36615
E102  E   0.58644  0.09483  0.63385
E103  E   0.58644  0.90517  0.36615
E104  E   0.58644  0.90517  0.63385
E105  E   0.59483  0.08644  0.13385
E106  E   0.59483  0.08644  0.86615
E107  E   0.59483  0.91356  0.13385
E108  E   0.59483  0.91356  0.86615
E109  E   0.59484  0.00000  0.00000
E110  E   0.59484  0.50000  0.00000
E111  E   0.63385  0.13385  0.25000
E112  E   0.63385  0.13385  0.75000
E113  E   0.63385  0.13385  0.25000
E114  E   0.63385  0.13385  0.75000
E115  E   0.63385  0.25000  0.13385
E116  E   0.63385  0.25000  0.13385
E117  E   0.63385  0.25000  0.86615
E118  E   0.63385  0.41356  0.09483
E119  E   0.63385  0.41356  0.90517
E120  E   0.63385  0.58644  0.09483
E121  E   0.63385  0.58644  0.90517
E122  E   0.63385  0.75000  0.13385
E123  E   0.63385  0.75000  0.13385
E124  E   0.63385  0.75000  0.86615
E125  E   0.63385  0.86615  0.25000
E126  E   0.63385  0.86615  0.75000
E127  E   0.67287  0.00000  0.32713
E128  E   0.67287  0.00000  0.67287
E129  E   0.67287  0.32713  0.00000
E130  E   0.67287  0.67287  0.00000
E131  E   0.75000  0.13385  0.36615
E132  E   0.75000  0.13385  0.63385
E133  E   0.75000  0.13385  0.36615
E134  E   0.75000  0.13385  0.63385
E135  E   0.75000  0.36615  0.13385
E136  E   0.75000  0.36615  0.13385
E137  E   0.75000  0.36615  0.86615
E138  E   0.75000  0.63385  0.13385
E139  E   0.75000  0.63385  0.13385
E140  E   0.75000  0.63385  0.86615
E141  E   0.75000  0.86615  0.36615
E142  E   0.75000  0.86615  0.63385
E143  E   0.82713  0.17287  0.50000
E144  E   0.82713  0.50000  0.17287
E145  E   0.82713  0.50000  0.82713
E146  E   0.82713  0.82713  0.50000
E147  E   0.86615  0.25000  0.36615
E148  E   0.86615  0.25000  0.63385
E149  E   0.86615  0.36615  0.25000
E150  E   0.86615  0.36615  0.75000
E151  E   0.86615  0.40517  0.08644
E152  E   0.86615  0.40517  0.91356
E153  E   0.86615  0.59483  0.08644
E154  E   0.86615  0.59483  0.91356
E155  E   0.86615  0.63385  0.25000
E156  E   0.86615  0.63385  0.75000
E157  E   0.86615  0.75000  0.36615
E158  E   0.86615  0.75000  0.63385
E159  E   0.90516  0.50000  0.00000
E160  E   0.90516  0.50000  0.50000
E161  E   0.90517  0.36615  0.41356
E162  E   0.90517  0.36615  0.58644
E163  E   0.90517  0.63385  0.41356
E164  E   0.90517  0.63385  0.58644
E165  E   0.91356  0.13385  0.40517
E166  E   0.91356  0.13385  0.59483
E167  E   0.91356  0.86615  0.40517
E168  E   0.91356  0.86615  0.59483
loop_
