data_fvj_Pm-3  hall_number: 494, V_con: 4, EC_con: 4
_audit_creation_date              2025-03-05
_audit_creation_method            'MOFbuilder_1.0'
_symmetry_space_group_name_H-M    'P1'
_symmetry_Int_Tables_number       1
_symmetry_cell_setting            triclinic
loop_
_symmetry_equiv_pos_as_xyz
  x,y,z
_cell_length_a                    42.6114
_cell_length_b                    42.6114
_cell_length_c                    42.6114
_cell_angle_alpha                 90.0
_cell_angle_beta                  90.0
_cell_angle_gamma                 90.0
loop_
_atom_site_label
_atom_site_type_symbol
_atom_site_fract_x
_atom_site_fract_y
_atom_site_fract_z
V1    V   0.11734  0.38266  0.50000
V2    V   0.11734  0.61734  0.50000
V3    V   0.38266  0.50000  0.11734
V4    V   0.38266  0.50000  0.88266
V5    V   0.50000  0.11734  0.38266
V6    V   0.50000  0.11734  0.61734
V7    V   0.50000  0.88266  0.38266
V8    V   0.50000  0.88266  0.61734
V9    V   0.61734  0.50000  0.11734
V10   V   0.61734  0.50000  0.88266
V11   V   0.88266  0.38266  0.50000
V12   V   0.88266  0.61734  0.50000
EC1    EC   0.11734  0.26620  0.29626
EC2    EC   0.11734  0.26620  0.70374
EC3    EC   0.11734  0.73380  0.29626
EC4    EC   0.11734  0.73380  0.70374
EC5    EC   0.26620  0.29626  0.11734
EC6    EC   0.26620  0.29626  0.88266
EC7    EC   0.26620  0.70374  0.11734
EC8    EC   0.26620  0.70374  0.88266
EC9    EC   0.29626  0.11734  0.26620
EC10   EC   0.29626  0.11734  0.73380
EC11   EC   0.29626  0.88266  0.26620
EC12   EC   0.29626  0.88266  0.73380
EC13   EC   0.70374  0.11734  0.26620
EC14   EC   0.70374  0.11734  0.73380
EC15   EC   0.70374  0.88266  0.26620
EC16   EC   0.70374  0.88266  0.73380
EC17   EC   0.73380  0.29626  0.11734
EC18   EC   0.73380  0.29626  0.88266
EC19   EC   0.73380  0.70374  0.11734
EC20   EC   0.73380  0.70374  0.88266
EC21   EC   0.88266  0.26620  0.29626
EC22   EC   0.88266  0.26620  0.70374
EC23   EC   0.88266  0.73380  0.29626
EC24   EC   0.88266  0.73380  0.70374
E1    E   0.00000  0.26620  0.29626
E2    E   0.00000  0.26620  0.70374
E3    E   0.00000  0.38266  0.50000
E4    E   0.00000  0.61734  0.50000
E5    E   0.00000  0.73380  0.29626
E6    E   0.00000  0.73380  0.70374
E7    E   0.11734  0.32443  0.39813
E8    E   0.11734  0.32443  0.60187
E9    E   0.11734  0.50000  0.50000
E10   E   0.11734  0.67557  0.39813
E11   E   0.11734  0.67557  0.60187
E12   E   0.19177  0.28123  0.20680
E13   E   0.19177  0.28123  0.79320
E14   E   0.19177  0.71877  0.20680
E15   E   0.19177  0.71877  0.79320
E16   E   0.20680  0.19177  0.28123
E17   E   0.20680  0.19177  0.71877
E18   E   0.20680  0.80823  0.28123
E19   E   0.20680  0.80823  0.71877
E20   E   0.26620  0.29626  0.00000
E21   E   0.26620  0.70374  0.00000
E22   E   0.28123  0.20680  0.19177
E23   E   0.28123  0.20680  0.80823
E24   E   0.28123  0.79320  0.19177
E25   E   0.28123  0.79320  0.80823
E26   E   0.29626  0.00000  0.26620
E27   E   0.29626  0.00000  0.73380
E28   E   0.32443  0.39813  0.11734
E29   E   0.32443  0.39813  0.88266
E30   E   0.32443  0.60187  0.11734
E31   E   0.32443  0.60187  0.88266
E32   E   0.38266  0.50000  0.00000
E33   E   0.39813  0.11734  0.32443
E34   E   0.39813  0.11734  0.67557
E35   E   0.39813  0.88266  0.32443
E36   E   0.39813  0.88266  0.67557
E37   E   0.50000  0.00000  0.38266
E38   E   0.50000  0.00000  0.61734
E39   E   0.50000  0.11734  0.50000
E40   E   0.50000  0.50000  0.11734
E41   E   0.50000  0.50000  0.88266
E42   E   0.50000  0.88266  0.50000
E43   E   0.60187  0.11734  0.32443
E44   E   0.60187  0.11734  0.67557
E45   E   0.60187  0.88266  0.32443
E46   E   0.60187  0.88266  0.67557
E47   E   0.61734  0.50000  0.00000
E48   E   0.67557  0.39813  0.11734
E49   E   0.67557  0.39813  0.88266
E50   E   0.67557  0.60187  0.11734
E51   E   0.67557  0.60187  0.88266
E52   E   0.70374  0.00000  0.26620
E53   E   0.70374  0.00000  0.73380
E54   E   0.71877  0.20680  0.19177
E55   E   0.71877  0.20680  0.80823
E56   E   0.71877  0.79320  0.19177
E57   E   0.71877  0.79320  0.80823
E58   E   0.73380  0.29626  0.00000
E59   E   0.73380  0.70374  0.00000
E60   E   0.79320  0.19177  0.28123
E61   E   0.79320  0.19177  0.71877
E62   E   0.79320  0.80823  0.28123
E63   E   0.79320  0.80823  0.71877
E64   E   0.80823  0.28123  0.20680
E65   E   0.80823  0.28123  0.79320
E66   E   0.80823  0.71877  0.20680
E67   E   0.80823  0.71877  0.79320
E68   E   0.88266  0.32443  0.39813
E69   E   0.88266  0.32443  0.60187
E70   E   0.88266  0.50000  0.50000
E71   E   0.88266  0.67557  0.39813
E72   E   0.88266  0.67557  0.60187
loop_
