data_fvs_Pa-3  hall_number: 501, V_con: 4, EC_con: 4
_audit_creation_date              2025-03-05
_audit_creation_method            'MOFbuilder_1.0'
_symmetry_space_group_name_H-M    'P1'
_symmetry_Int_Tables_number       1
_symmetry_cell_setting            triclinic
loop_
_symmetry_equiv_pos_as_xyz
  x,y,z
_cell_length_a                    44.7466
_cell_length_b                    44.7466
_cell_length_c                    44.7466
_cell_angle_alpha                 90.0
_cell_angle_beta                  90.0
_cell_angle_gamma                 90.0
loop_
_atom_site_label
_atom_site_type_symbol
_atom_site_fract_x
_atom_site_fract_y
_atom_site_fract_z
V1    V   0.04792  0.16041  0.88552
V2    V   0.04792  0.33959  0.38552
V3    V   0.11448  0.54792  0.33959
V4    V   0.11448  0.95208  0.83959
V5    V   0.16041  0.61448  0.54792
V6    V   0.16041  0.88552  0.04792
V7    V   0.33959  0.11448  0.54792
V8    V   0.33959  0.38552  0.04792
V9    V   0.38552  0.04792  0.33959
V10   V   0.38552  0.45208  0.83959
V11   V   0.45208  0.66041  0.88552
V12   V   0.45208  0.83959  0.38552
V13   V   0.54792  0.16041  0.61448
V14   V   0.54792  0.33959  0.11448
V15   V   0.61448  0.54792  0.16041
V16   V   0.61448  0.95208  0.66041
V17   V   0.66041  0.61448  0.95208
V18   V   0.66041  0.88552  0.45208
V19   V   0.83959  0.11448  0.95208
V20   V   0.83959  0.38552  0.45208
V21   V   0.88552  0.04792  0.16041
V22   V   0.88552  0.45208  0.66041
V23   V   0.95208  0.66041  0.61448
V24   V   0.95208  0.83959  0.11448
EC1    EC   0.05101  0.18299  0.22612
EC2    EC   0.05101  0.31701  0.72612
EC3    EC   0.18299  0.22612  0.05101
EC4    EC   0.18299  0.27388  0.55101
EC5    EC   0.22612  0.05101  0.18299
EC6    EC   0.22612  0.44899  0.68299
EC7    EC   0.27388  0.55101  0.18299
EC8    EC   0.27388  0.94899  0.68299
EC9    EC   0.31701  0.72612  0.05101
EC10   EC   0.31701  0.77388  0.55101
EC11   EC   0.44899  0.68299  0.22612
EC12   EC   0.44899  0.81701  0.72612
EC13   EC   0.55101  0.18299  0.27388
EC14   EC   0.55101  0.31701  0.77388
EC15   EC   0.68299  0.22612  0.44899
EC16   EC   0.68299  0.27388  0.94899
EC17   EC   0.72612  0.05101  0.31701
EC18   EC   0.72612  0.44899  0.81701
EC19   EC   0.77388  0.55101  0.31701
EC20   EC   0.77388  0.94899  0.81701
EC21   EC   0.81701  0.72612  0.44899
EC22   EC   0.81701  0.77388  0.94899
EC23   EC   0.94899  0.68299  0.27388
EC24   EC   0.94899  0.81701  0.77388
E1    E   0.03174  0.61546  0.30673
E2    E   0.03174  0.88454  0.80673
E3    E   0.04947  0.23871  0.80582
E4    E   0.04947  0.26129  0.30582
E5    E   0.05624  0.63744  0.58120
E6    E   0.05624  0.86256  0.08120
E7    E   0.08120  0.05624  0.86256
E8    E   0.08120  0.44376  0.36256
E9    E   0.11546  0.19327  0.96826
E10   E   0.11546  0.30673  0.46826
E11   E   0.11700  0.20455  0.13856
E12   E   0.11700  0.29545  0.63856
E13   E   0.13744  0.58120  0.44376
E14   E   0.13744  0.91880  0.94376
E15   E   0.13856  0.11700  0.20455
E16   E   0.13856  0.38300  0.70455
E17   E   0.19327  0.53174  0.61546
E18   E   0.19327  0.96826  0.11546
E19   E   0.19418  0.54947  0.26129
E20   E   0.19418  0.95053  0.76129
E21   E   0.20455  0.13856  0.11700
E22   E   0.20455  0.36144  0.61700
E23   E   0.23871  0.69418  0.54947
E24   E   0.23871  0.80582  0.04947
E25   E   0.26129  0.19418  0.54947
E26   E   0.26129  0.30582  0.04947
E27   E   0.29545  0.63856  0.11700
E28   E   0.29545  0.86144  0.61700
E29   E   0.30582  0.04947  0.26129
E30   E   0.30582  0.45053  0.76129
E31   E   0.30673  0.03174  0.61546
E32   E   0.30673  0.46826  0.11546
E33   E   0.36144  0.61700  0.20455
E34   E   0.36144  0.88300  0.70455
E35   E   0.36256  0.08120  0.44376
E36   E   0.36256  0.41880  0.94376
E37   E   0.38300  0.70455  0.13856
E38   E   0.38300  0.79545  0.63856
E39   E   0.38454  0.69327  0.96826
E40   E   0.38454  0.80673  0.46826
E41   E   0.41880  0.55624  0.86256
E42   E   0.41880  0.94376  0.36256
E43   E   0.44376  0.13744  0.58120
E44   E   0.44376  0.36256  0.08120
E45   E   0.45053  0.73871  0.80582
E46   E   0.45053  0.76129  0.30582
E47   E   0.46826  0.11546  0.30673
E48   E   0.46826  0.38454  0.80673
E49   E   0.53174  0.61546  0.19327
E50   E   0.53174  0.88454  0.69327
E51   E   0.54947  0.23871  0.69418
E52   E   0.54947  0.26129  0.19418
E53   E   0.55624  0.63744  0.91880
E54   E   0.55624  0.86256  0.41880
E55   E   0.58120  0.05624  0.63744
E56   E   0.58120  0.44376  0.13744
E57   E   0.61546  0.19327  0.53174
E58   E   0.61546  0.30673  0.03174
E59   E   0.61700  0.20455  0.36144
E60   E   0.61700  0.29545  0.86144
E61   E   0.63744  0.58120  0.05624
E62   E   0.63744  0.91880  0.55624
E63   E   0.63856  0.11700  0.29545
E64   E   0.63856  0.38300  0.79545
E65   E   0.69327  0.53174  0.88454
E66   E   0.69327  0.96826  0.38454
E67   E   0.69418  0.54947  0.23871
E68   E   0.69418  0.95053  0.73871
E69   E   0.70455  0.13856  0.38300
E70   E   0.70455  0.36144  0.88300
E71   E   0.73871  0.69418  0.95053
E72   E   0.73871  0.80582  0.45053
E73   E   0.76129  0.19418  0.95053
E74   E   0.76129  0.30582  0.45053
E75   E   0.79545  0.63856  0.38300
E76   E   0.79545  0.86144  0.88300
E77   E   0.80582  0.04947  0.23871
E78   E   0.80582  0.45053  0.73871
E79   E   0.80673  0.03174  0.88454
E80   E   0.80673  0.46826  0.38454
E81   E   0.86144  0.61700  0.29545
E82   E   0.86144  0.88300  0.79545
E83   E   0.86256  0.08120  0.05624
E84   E   0.86256  0.41880  0.55624
E85   E   0.88300  0.70455  0.36144
E86   E   0.88300  0.79545  0.86144
E87   E   0.88454  0.69327  0.53174
E88   E   0.88454  0.80673  0.03174
E89   E   0.91880  0.55624  0.63744
E90   E   0.91880  0.94376  0.13744
E91   E   0.94376  0.13744  0.91880
E92   E   0.94376  0.36256  0.41880
E93   E   0.95053  0.73871  0.69418
E94   E   0.95053  0.76129  0.19418
E95   E   0.96826  0.11546  0.19327
E96   E   0.96826  0.38454  0.69327
loop_
