data_fvv_I432  hall_number: 507, V_con: 4, EC_con: 4
_audit_creation_date              2025-03-05
_audit_creation_method            'MOFbuilder_1.0'
_symmetry_space_group_name_H-M    'P1'
_symmetry_Int_Tables_number       1
_symmetry_cell_setting            triclinic
loop_
_symmetry_equiv_pos_as_xyz
  x,y,z
_cell_length_a                    54.1037
_cell_length_b                    54.1037
_cell_length_c                    54.1037
_cell_angle_alpha                 90.0
_cell_angle_beta                  90.0
_cell_angle_gamma                 90.0
loop_
_atom_site_label
_atom_site_type_symbol
_atom_site_fract_x
_atom_site_fract_y
_atom_site_fract_z
V1    V   0.06527  0.15759  0.56542
V2    V   0.06527  0.43458  0.15759
V3    V   0.06527  0.56542  0.84241
V4    V   0.06527  0.84241  0.43458
V5    V   0.06542  0.34241  0.56527
V6    V   0.06542  0.43473  0.34241
V7    V   0.06542  0.56527  0.65759
V8    V   0.06542  0.65759  0.43473
V9    V   0.15759  0.06527  0.43458
V10   V   0.15759  0.43458  0.93473
V11   V   0.15759  0.56542  0.06527
V12   V   0.15759  0.93473  0.56542
V13   V   0.34241  0.06542  0.43473
V14   V   0.34241  0.43473  0.93458
V15   V   0.34241  0.56527  0.06542
V16   V   0.34241  0.93458  0.56527
V17   V   0.43458  0.06527  0.84241
V18   V   0.43458  0.15759  0.06527
V19   V   0.43458  0.84241  0.93473
V20   V   0.43458  0.93473  0.15759
V21   V   0.43473  0.06542  0.65759
V22   V   0.43473  0.34241  0.06542
V23   V   0.43473  0.65759  0.93458
V24   V   0.43473  0.93458  0.34241
V25   V   0.56527  0.06542  0.34241
V26   V   0.56527  0.34241  0.93458
V27   V   0.56527  0.65759  0.06542
V28   V   0.56527  0.93458  0.65759
V29   V   0.56542  0.06527  0.15759
V30   V   0.56542  0.15759  0.93473
V31   V   0.56542  0.84241  0.06527
V32   V   0.56542  0.93473  0.84241
V33   V   0.65759  0.06542  0.56527
V34   V   0.65759  0.43473  0.06542
V35   V   0.65759  0.56527  0.93458
V36   V   0.65759  0.93458  0.43473
V37   V   0.84241  0.06527  0.56542
V38   V   0.84241  0.43458  0.06527
V39   V   0.84241  0.56542  0.93473
V40   V   0.84241  0.93473  0.43458
V41   V   0.93458  0.34241  0.43473
V42   V   0.93458  0.43473  0.65759
V43   V   0.93458  0.56527  0.34241
V44   V   0.93458  0.65759  0.56527
V45   V   0.93473  0.15759  0.43458
V46   V   0.93473  0.43458  0.84241
V47   V   0.93473  0.56542  0.15759
V48   V   0.93473  0.84241  0.56542
EC1    EC   0.01223  0.13012  0.74033
EC2    EC   0.01223  0.25967  0.13012
EC3    EC   0.01223  0.74033  0.86988
EC4    EC   0.01223  0.86988  0.25967
EC5    EC   0.13012  0.01223  0.25967
EC6    EC   0.13012  0.25967  0.98777
EC7    EC   0.13012  0.74033  0.01223
EC8    EC   0.13012  0.98777  0.74033
EC9    EC   0.24033  0.36988  0.51223
EC10   EC   0.24033  0.48777  0.36988
EC11   EC   0.24033  0.51223  0.63012
EC12   EC   0.24033  0.63012  0.48777
EC13   EC   0.25967  0.01223  0.86988
EC14   EC   0.25967  0.13012  0.01223
EC15   EC   0.25967  0.86988  0.98777
EC16   EC   0.25967  0.98777  0.13012
EC17   EC   0.36988  0.24033  0.48777
EC18   EC   0.36988  0.48777  0.75967
EC19   EC   0.36988  0.51223  0.24033
EC20   EC   0.36988  0.75967  0.51223
EC21   EC   0.48777  0.24033  0.63012
EC22   EC   0.48777  0.36988  0.24033
EC23   EC   0.48777  0.63012  0.75967
EC24   EC   0.48777  0.75967  0.36988
EC25   EC   0.51223  0.24033  0.36988
EC26   EC   0.51223  0.36988  0.75967
EC27   EC   0.51223  0.63012  0.24033
EC28   EC   0.51223  0.75967  0.63012
EC29   EC   0.63012  0.24033  0.51223
EC30   EC   0.63012  0.48777  0.24033
EC31   EC   0.63012  0.51223  0.75967
EC32   EC   0.63012  0.75967  0.48777
EC33   EC   0.74033  0.01223  0.13012
EC34   EC   0.74033  0.13012  0.98777
EC35   EC   0.74033  0.86988  0.01223
EC36   EC   0.74033  0.98777  0.86988
EC37   EC   0.75967  0.36988  0.48777
EC38   EC   0.75967  0.48777  0.63012
EC39   EC   0.75967  0.51223  0.36988
EC40   EC   0.75967  0.63012  0.51223
EC41   EC   0.86988  0.01223  0.74033
EC42   EC   0.86988  0.25967  0.01223
EC43   EC   0.86988  0.74033  0.98777
EC44   EC   0.86988  0.98777  0.25967
EC45   EC   0.98777  0.13012  0.25967
EC46   EC   0.98777  0.25967  0.86988
EC47   EC   0.98777  0.74033  0.13012
EC48   EC   0.98777  0.86988  0.74033
E1    E   0.00000  0.15759  0.50000
E2    E   0.00000  0.19489  0.19489
E3    E   0.00000  0.19489  0.80511
E4    E   0.00000  0.34241  0.50000
E5    E   0.00000  0.38857  0.38857
E6    E   0.00000  0.38857  0.61143
E7    E   0.00000  0.50000  0.15759
E8    E   0.00000  0.50000  0.34241
E9    E   0.00000  0.50000  0.65759
E10   E   0.00000  0.50000  0.84241
E11   E   0.00000  0.61143  0.38857
E12   E   0.00000  0.61143  0.61143
E13   E   0.00000  0.65759  0.50000
E14   E   0.00000  0.80511  0.19489
E15   E   0.00000  0.80511  0.80511
E16   E   0.00000  0.84241  0.50000
E17   E   0.03875  0.14385  0.65288
E18   E   0.03875  0.34712  0.14385
E19   E   0.03875  0.65288  0.85615
E20   E   0.03875  0.85615  0.34712
E21   E   0.05895  0.07118  0.25967
E22   E   0.05895  0.25967  0.92882
E23   E   0.05895  0.74033  0.07118
E24   E   0.05895  0.92882  0.74033
E25   E   0.06535  0.25000  0.56535
E26   E   0.06535  0.43465  0.25000
E27   E   0.06535  0.56535  0.75000
E28   E   0.06535  0.75000  0.43465
E29   E   0.06535  0.25000  0.56535
E30   E   0.06535  0.43465  0.25000
E31   E   0.06535  0.56535  0.75000
E32   E   0.06535  0.75000  0.43465
E33   E   0.07118  0.05895  0.74033
E34   E   0.07118  0.25967  0.05895
E35   E   0.07118  0.74033  0.94105
E36   E   0.07118  0.94105  0.25967
E37   E   0.11143  0.11143  0.50000
E38   E   0.11143  0.50000  0.11143
E39   E   0.11143  0.50000  0.88857
E40   E   0.11143  0.88857  0.50000
E41   E   0.14385  0.03875  0.34712
E42   E   0.14385  0.34712  0.96125
E43   E   0.14385  0.65288  0.03875
E44   E   0.14385  0.96125  0.65288
E45   E   0.15288  0.35615  0.53875
E46   E   0.15288  0.46125  0.35615
E47   E   0.15288  0.53875  0.64385
E48   E   0.15288  0.64385  0.46125
E49   E   0.15759  0.00000  0.50000
E50   E   0.15759  0.50000  0.00000
E51   E   0.19489  0.00000  0.19489
E52   E   0.19489  0.00000  0.80511
E53   E   0.19489  0.19489  0.00000
E54   E   0.19489  0.80511  0.00000
E55   E   0.24033  0.42882  0.44105
E56   E   0.24033  0.44105  0.57118
E57   E   0.24033  0.55895  0.42882
E58   E   0.24033  0.57118  0.55895
E59   E   0.25000  0.06535  0.43465
E60   E   0.25000  0.06535  0.43465
E61   E   0.25000  0.43465  0.93465
E62   E   0.25000  0.56535  0.06535
E63   E   0.25000  0.56535  0.06535
E64   E   0.25000  0.93465  0.56535
E65   E   0.25967  0.05895  0.07118
E66   E   0.25967  0.07118  0.94105
E67   E   0.25967  0.92882  0.05895
E68   E   0.25967  0.94105  0.92882
E69   E   0.30511  0.30511  0.50000
E70   E   0.30511  0.50000  0.30511
E71   E   0.30511  0.50000  0.69489
E72   E   0.30511  0.69489  0.50000
E73   E   0.34241  0.00000  0.50000
E74   E   0.34241  0.50000  0.00000
E75   E   0.34712  0.03875  0.85615
E76   E   0.34712  0.14385  0.03875
E77   E   0.34712  0.85615  0.96125
E78   E   0.34712  0.96125  0.14385
E79   E   0.35615  0.15288  0.46125
E80   E   0.35615  0.46125  0.84712
E81   E   0.35615  0.53875  0.15288
E82   E   0.35615  0.84712  0.53875
E83   E   0.38857  0.00000  0.38857
E84   E   0.38857  0.00000  0.61143
E85   E   0.38857  0.38857  0.00000
E86   E   0.38857  0.61143  0.00000
E87   E   0.42882  0.24033  0.55895
E88   E   0.42882  0.44105  0.24033
E89   E   0.42882  0.55895  0.75967
E90   E   0.42882  0.75967  0.44105
E91   E   0.43465  0.06535  0.75000
E92   E   0.43465  0.06535  0.75000
E93   E   0.43465  0.25000  0.06535
E94   E   0.43465  0.25000  0.06535
E95   E   0.43465  0.75000  0.93465
E96   E   0.43465  0.93465  0.25000
E97   E   0.44105  0.24033  0.42882
E98   E   0.44105  0.42882  0.75967
E99   E   0.44105  0.57118  0.24033
E100  E   0.44105  0.75967  0.57118
E101  E   0.46125  0.15288  0.64385
E102  E   0.46125  0.35615  0.15288
E103  E   0.46125  0.64385  0.84712
E104  E   0.46125  0.84712  0.35615
E105  E   0.50000  0.00000  0.15759
E106  E   0.50000  0.00000  0.34241
E107  E   0.50000  0.00000  0.65759
E108  E   0.50000  0.00000  0.84241
E109  E   0.50000  0.11143  0.11143
E110  E   0.50000  0.11143  0.88857
E111  E   0.50000  0.15759  0.00000
E112  E   0.50000  0.30511  0.30511
E113  E   0.50000  0.30511  0.69489
E114  E   0.50000  0.34241  0.00000
E115  E   0.50000  0.65759  0.00000
E116  E   0.50000  0.69489  0.30511
E117  E   0.50000  0.69489  0.69489
E118  E   0.50000  0.84241  0.00000
E119  E   0.50000  0.88857  0.11143
E120  E   0.50000  0.88857  0.88857
E121  E   0.53875  0.15288  0.35615
E122  E   0.53875  0.35615  0.84712
E123  E   0.53875  0.64385  0.15288
E124  E   0.53875  0.84712  0.64385
E125  E   0.55895  0.24033  0.57118
E126  E   0.55895  0.42882  0.24033
E127  E   0.55895  0.57118  0.75967
E128  E   0.55895  0.75967  0.42882
E129  E   0.56535  0.06535  0.25000
E130  E   0.56535  0.06535  0.25000
E131  E   0.56535  0.25000  0.93465
E132  E   0.56535  0.75000  0.06535
E133  E   0.56535  0.75000  0.06535
E134  E   0.56535  0.93465  0.75000
E135  E   0.57118  0.24033  0.44105
E136  E   0.57118  0.44105  0.75967
E137  E   0.57118  0.55895  0.24033
E138  E   0.57118  0.75967  0.55895
E139  E   0.61143  0.00000  0.38857
E140  E   0.61143  0.00000  0.61143
E141  E   0.61143  0.38857  0.00000
E142  E   0.61143  0.61143  0.00000
E143  E   0.64385  0.15288  0.53875
E144  E   0.64385  0.46125  0.15288
E145  E   0.64385  0.53875  0.84712
E146  E   0.64385  0.84712  0.46125
E147  E   0.65288  0.03875  0.14385
E148  E   0.65288  0.14385  0.96125
E149  E   0.65288  0.85615  0.03875
E150  E   0.65288  0.96125  0.85615
E151  E   0.65759  0.00000  0.50000
E152  E   0.65759  0.50000  0.00000
E153  E   0.69489  0.30511  0.50000
E154  E   0.69489  0.50000  0.30511
E155  E   0.69489  0.50000  0.69489
E156  E   0.69489  0.69489  0.50000
E157  E   0.74033  0.05895  0.92882
E158  E   0.74033  0.07118  0.05895
E159  E   0.74033  0.92882  0.94105
E160  E   0.74033  0.94105  0.07118
E161  E   0.75000  0.06535  0.56535
E162  E   0.75000  0.06535  0.56535
E163  E   0.75000  0.43465  0.06535
E164  E   0.75000  0.43465  0.06535
E165  E   0.75000  0.56535  0.93465
E166  E   0.75000  0.93465  0.43465
E167  E   0.75967  0.42882  0.55895
E168  E   0.75967  0.44105  0.42882
E169  E   0.75967  0.55895  0.57118
E170  E   0.75967  0.57118  0.44105
E171  E   0.80511  0.00000  0.19489
E172  E   0.80511  0.00000  0.80511
E173  E   0.80511  0.19489  0.00000
E174  E   0.80511  0.80511  0.00000
E175  E   0.84241  0.00000  0.50000
E176  E   0.84241  0.50000  0.00000
E177  E   0.84712  0.35615  0.46125
E178  E   0.84712  0.46125  0.64385
E179  E   0.84712  0.53875  0.35615
E180  E   0.84712  0.64385  0.53875
E181  E   0.85615  0.03875  0.65288
E182  E   0.85615  0.34712  0.03875
E183  E   0.85615  0.65288  0.96125
E184  E   0.85615  0.96125  0.34712
E185  E   0.88857  0.11143  0.50000
E186  E   0.88857  0.50000  0.11143
E187  E   0.88857  0.50000  0.88857
E188  E   0.88857  0.88857  0.50000
E189  E   0.92882  0.05895  0.25967
E190  E   0.92882  0.25967  0.94105
E191  E   0.92882  0.74033  0.05895
E192  E   0.92882  0.94105  0.74033
E193  E   0.93465  0.25000  0.43465
E194  E   0.93465  0.43465  0.75000
E195  E   0.93465  0.56535  0.25000
E196  E   0.93465  0.75000  0.56535
E197  E   0.94105  0.07118  0.74033
E198  E   0.94105  0.25967  0.07118
E199  E   0.94105  0.74033  0.92882
E200  E   0.94105  0.92882  0.25967
E201  E   0.96125  0.14385  0.34712
E202  E   0.96125  0.34712  0.85615
E203  E   0.96125  0.65288  0.14385
E204  E   0.96125  0.85615  0.65288
loop_
