data_gar-e_Ia-3d  hall_number: 530, V_con: 7
_audit_creation_date              2025-03-05
_audit_creation_method            'MOFbuilder_1.0'
_symmetry_space_group_name_H-M    'P1'
_symmetry_Int_Tables_number       1
_symmetry_cell_setting            triclinic
loop_
_symmetry_equiv_pos_as_xyz
  x,y,z
_cell_length_a                    42.7091
_cell_length_b                    42.7091
_cell_length_c                    42.7091
_cell_angle_alpha                 90.0
_cell_angle_beta                  90.0
_cell_angle_gamma                 90.0
loop_
_atom_site_label
_atom_site_type_symbol
_atom_site_fract_x
_atom_site_fract_y
_atom_site_fract_z
V1    V   0.04222  0.05894  0.64885
V2    V   0.04222  0.44106  0.14885
V3    V   0.04222  0.55894  0.35115
V4    V   0.04222  0.94106  0.85115
V5    V   0.05894  0.14885  0.95778
V6    V   0.05894  0.35115  0.45778
V7    V   0.05894  0.64885  0.04222
V8    V   0.05894  0.85115  0.54222
V9    V   0.10115  0.19106  0.29222
V10   V   0.10115  0.30894  0.79222
V11   V   0.10115  0.69106  0.70778
V12   V   0.10115  0.80894  0.20778
V13   V   0.14885  0.04222  0.44106
V14   V   0.14885  0.45778  0.94106
V15   V   0.14885  0.54222  0.55894
V16   V   0.14885  0.95778  0.05894
V17   V   0.19106  0.20778  0.60115
V18   V   0.19106  0.29222  0.10115
V19   V   0.19106  0.70778  0.39885
V20   V   0.19106  0.79222  0.89885
V21   V   0.20778  0.10115  0.80894
V22   V   0.20778  0.39885  0.30894
V23   V   0.20778  0.60115  0.19106
V24   V   0.20778  0.89885  0.69106
V25   V   0.29222  0.10115  0.19106
V26   V   0.29222  0.39885  0.69106
V27   V   0.29222  0.60115  0.80894
V28   V   0.29222  0.89885  0.30894
V29   V   0.30894  0.20778  0.39885
V30   V   0.30894  0.29222  0.89885
V31   V   0.30894  0.70778  0.60115
V32   V   0.30894  0.79222  0.10115
V33   V   0.35115  0.04222  0.55894
V34   V   0.35115  0.45778  0.05894
V35   V   0.35115  0.54222  0.44106
V36   V   0.35115  0.95778  0.94106
V37   V   0.39885  0.19106  0.70778
V38   V   0.39885  0.30894  0.20778
V39   V   0.39885  0.69106  0.29222
V40   V   0.39885  0.80894  0.79222
V41   V   0.44106  0.14885  0.04222
V42   V   0.44106  0.35115  0.54222
V43   V   0.44106  0.64885  0.95778
V44   V   0.44106  0.85115  0.45778
V45   V   0.45778  0.05894  0.35115
V46   V   0.45778  0.44106  0.85115
V47   V   0.45778  0.55894  0.64885
V48   V   0.45778  0.94106  0.14885
V49   V   0.54222  0.05894  0.85115
V50   V   0.54222  0.44106  0.35115
V51   V   0.54222  0.55894  0.14885
V52   V   0.54222  0.94106  0.64885
V53   V   0.55894  0.14885  0.54222
V54   V   0.55894  0.35115  0.04222
V55   V   0.55894  0.64885  0.45778
V56   V   0.55894  0.85115  0.95778
V57   V   0.60115  0.19106  0.20778
V58   V   0.60115  0.30894  0.70778
V59   V   0.60115  0.69106  0.79222
V60   V   0.60115  0.80894  0.29222
V61   V   0.64885  0.04222  0.05894
V62   V   0.64885  0.45778  0.55894
V63   V   0.64885  0.54222  0.94106
V64   V   0.64885  0.95778  0.44106
V65   V   0.69106  0.20778  0.89885
V66   V   0.69106  0.29222  0.39885
V67   V   0.69106  0.70778  0.10115
V68   V   0.69106  0.79222  0.60115
V69   V   0.70778  0.10115  0.69106
V70   V   0.70778  0.39885  0.19106
V71   V   0.70778  0.60115  0.30894
V72   V   0.70778  0.89885  0.80894
V73   V   0.79222  0.10115  0.30894
V74   V   0.79222  0.39885  0.80894
V75   V   0.79222  0.60115  0.69106
V76   V   0.79222  0.89885  0.19106
V77   V   0.80894  0.20778  0.10115
V78   V   0.80894  0.29222  0.60115
V79   V   0.80894  0.70778  0.89885
V80   V   0.80894  0.79222  0.39885
V81   V   0.85115  0.04222  0.94106
V82   V   0.85115  0.45778  0.44106
V83   V   0.85115  0.54222  0.05894
V84   V   0.85115  0.95778  0.55894
V85   V   0.89885  0.19106  0.79222
V86   V   0.89885  0.30894  0.29222
V87   V   0.89885  0.69106  0.20778
V88   V   0.89885  0.80894  0.70778
V89   V   0.94106  0.14885  0.45778
V90   V   0.94106  0.35115  0.95778
V91   V   0.94106  0.64885  0.54222
V92   V   0.94106  0.85115  0.04222
V93   V   0.95778  0.05894  0.14885
V94   V   0.95778  0.44106  0.64885
V95   V   0.95778  0.55894  0.85115
V96   V   0.95778  0.94106  0.35115
E1    E   0.00000  0.25000  0.29222
E2    E   0.00000  0.25000  0.45778
E3    E   0.00000  0.25000  0.79222
E4    E   0.00000  0.25000  0.95778
E5    E   0.00000  0.75000  0.04222
E6    E   0.00000  0.75000  0.20778
E7    E   0.00000  0.75000  0.54222
E8    E   0.00000  0.75000  0.70778
E9    E   0.00836  0.10389  0.05331
E10   E   0.00836  0.39611  0.55331
E11   E   0.00836  0.60389  0.94669
E12   E   0.00836  0.89611  0.44669
E13   E   0.02111  0.16995  0.37500
E14   E   0.02111  0.33005  0.87500
E15   E   0.02111  0.66995  0.62500
E16   E   0.02111  0.83005  0.12500
E17   E   0.04222  0.00000  0.75000
E18   E   0.04222  0.50000  0.25000
E19   E   0.04495  0.09553  0.44942
E20   E   0.04495  0.40447  0.94942
E21   E   0.04495  0.59553  0.55058
E22   E   0.04495  0.90447  0.05058
E23   E   0.05058  0.04495  0.90447
E24   E   0.05058  0.45505  0.40447
E25   E   0.05058  0.54495  0.09553
E26   E   0.05058  0.95505  0.59553
E27   E   0.05331  0.00836  0.10389
E28   E   0.05331  0.49164  0.60389
E29   E   0.05331  0.50836  0.89611
E30   E   0.05331  0.99164  0.39611
E31   E   0.08005  0.22889  0.87500
E32   E   0.08005  0.27111  0.37500
E33   E   0.08005  0.72889  0.12500
E34   E   0.08005  0.77111  0.62500
E35   E   0.09553  0.05058  0.54495
E36   E   0.09553  0.44942  0.04495
E37   E   0.09553  0.55058  0.45505
E38   E   0.09553  0.94942  0.95505
E39   E   0.10389  0.05331  0.00836
E40   E   0.10389  0.44669  0.50836
E41   E   0.10389  0.55331  0.99164
E42   E   0.10389  0.94669  0.49164
E43   E   0.12500  0.02111  0.83005
E44   E   0.12500  0.08005  0.72889
E45   E   0.12500  0.41995  0.22889
E46   E   0.12500  0.47889  0.33005
E47   E   0.12500  0.52111  0.16995
E48   E   0.12500  0.58005  0.27111
E49   E   0.12500  0.91995  0.77111
E50   E   0.12500  0.97889  0.66995
E51   E   0.14611  0.24164  0.19669
E52   E   0.14611  0.25836  0.69669
E53   E   0.14611  0.74164  0.80331
E54   E   0.14611  0.75836  0.30331
E55   E   0.15447  0.20505  0.80058
E56   E   0.15447  0.29495  0.30058
E57   E   0.15447  0.70505  0.19942
E58   E   0.15447  0.79495  0.69942
E59   E   0.16995  0.12500  0.52111
E60   E   0.16995  0.37500  0.02111
E61   E   0.16995  0.62500  0.47889
E62   E   0.16995  0.87500  0.97889
E63   E   0.19669  0.14611  0.24164
E64   E   0.19669  0.35389  0.74164
E65   E   0.19669  0.64611  0.75836
E66   E   0.19669  0.85389  0.25836
E67   E   0.19942  0.15447  0.70505
E68   E   0.19942  0.34553  0.20505
E69   E   0.19942  0.65447  0.29495
E70   E   0.19942  0.84553  0.79495
E71   E   0.20505  0.19942  0.34553
E72   E   0.20505  0.30058  0.84553
E73   E   0.20505  0.69942  0.65447
E74   E   0.20505  0.80058  0.15447
E75   E   0.20778  0.00000  0.75000
E76   E   0.20778  0.50000  0.25000
E77   E   0.22889  0.12500  0.41995
E78   E   0.22889  0.37500  0.91995
E79   E   0.22889  0.62500  0.58005
E80   E   0.22889  0.87500  0.08005
E81   E   0.24164  0.19669  0.14611
E82   E   0.24164  0.30331  0.64611
E83   E   0.24164  0.69669  0.85389
E84   E   0.24164  0.80331  0.35389
E85   E   0.25000  0.04222  0.50000
E86   E   0.25000  0.20778  0.50000
E87   E   0.25000  0.29222  0.00000
E88   E   0.25000  0.45778  0.00000
E89   E   0.25000  0.54222  0.50000
E90   E   0.25000  0.70778  0.50000
E91   E   0.25000  0.79222  0.00000
E92   E   0.25000  0.95778  0.00000
E93   E   0.25836  0.19669  0.85389
E94   E   0.25836  0.30331  0.35389
E95   E   0.25836  0.69669  0.14611
E96   E   0.25836  0.80331  0.64611
E97   E   0.27111  0.12500  0.58005
E98   E   0.27111  0.37500  0.08005
E99   E   0.27111  0.62500  0.41995
E100  E   0.27111  0.87500  0.91995
E101  E   0.29222  0.00000  0.25000
E102  E   0.29222  0.50000  0.75000
E103  E   0.29495  0.19942  0.65447
E104  E   0.29495  0.30058  0.15447
E105  E   0.29495  0.69942  0.34553
E106  E   0.29495  0.80058  0.84553
E107  E   0.30058  0.15447  0.29495
E108  E   0.30058  0.34553  0.79495
E109  E   0.30058  0.65447  0.70505
E110  E   0.30058  0.84553  0.20505
E111  E   0.30331  0.14611  0.75836
E112  E   0.30331  0.35389  0.25836
E113  E   0.30331  0.64611  0.24164
E114  E   0.30331  0.85389  0.74164
E115  E   0.33005  0.12500  0.47889
E116  E   0.33005  0.37500  0.97889
E117  E   0.33005  0.62500  0.52111
E118  E   0.33005  0.87500  0.02111
E119  E   0.34553  0.20505  0.19942
E120  E   0.34553  0.29495  0.69942
E121  E   0.34553  0.70505  0.80058
E122  E   0.34553  0.79495  0.30058
E123  E   0.35389  0.24164  0.80331
E124  E   0.35389  0.25836  0.30331
E125  E   0.35389  0.74164  0.19669
E126  E   0.35389  0.75836  0.69669
E127  E   0.37500  0.02111  0.16995
E128  E   0.37500  0.08005  0.27111
E129  E   0.37500  0.41995  0.77111
E130  E   0.37500  0.47889  0.66995
E131  E   0.37500  0.52111  0.83005
E132  E   0.37500  0.58005  0.72889
E133  E   0.37500  0.91995  0.22889
E134  E   0.37500  0.97889  0.33005
E135  E   0.39611  0.05331  0.99164
E136  E   0.39611  0.44669  0.49164
E137  E   0.39611  0.55331  0.00836
E138  E   0.39611  0.94669  0.50836
E139  E   0.40447  0.05058  0.45505
E140  E   0.40447  0.44942  0.95505
E141  E   0.40447  0.55058  0.54495
E142  E   0.40447  0.94942  0.04495
E143  E   0.41995  0.22889  0.12500
E144  E   0.41995  0.27111  0.62500
E145  E   0.41995  0.72889  0.87500
E146  E   0.41995  0.77111  0.37500
E147  E   0.44669  0.00836  0.89611
E148  E   0.44669  0.49164  0.39611
E149  E   0.44669  0.50836  0.10389
E150  E   0.44669  0.99164  0.60389
E151  E   0.44942  0.04495  0.09553
E152  E   0.44942  0.45505  0.59553
E153  E   0.44942  0.54495  0.90447
E154  E   0.44942  0.95505  0.40447
E155  E   0.45505  0.09553  0.55058
E156  E   0.45505  0.40447  0.05058
E157  E   0.45505  0.59553  0.44942
E158  E   0.45505  0.90447  0.94942
E159  E   0.45778  0.00000  0.25000
E160  E   0.45778  0.50000  0.75000
E161  E   0.47889  0.16995  0.62500
E162  E   0.47889  0.33005  0.12500
E163  E   0.47889  0.66995  0.37500
E164  E   0.47889  0.83005  0.87500
E165  E   0.49164  0.10389  0.94669
E166  E   0.49164  0.39611  0.44669
E167  E   0.49164  0.60389  0.05331
E168  E   0.49164  0.89611  0.55331
E169  E   0.50000  0.25000  0.04222
E170  E   0.50000  0.25000  0.20778
E171  E   0.50000  0.25000  0.54222
E172  E   0.50000  0.25000  0.70778
E173  E   0.50000  0.75000  0.29222
E174  E   0.50000  0.75000  0.45778
E175  E   0.50000  0.75000  0.79222
E176  E   0.50000  0.75000  0.95778
E177  E   0.50836  0.10389  0.44669
E178  E   0.50836  0.39611  0.94669
E179  E   0.50836  0.60389  0.55331
E180  E   0.50836  0.89611  0.05331
E181  E   0.52111  0.16995  0.12500
E182  E   0.52111  0.33005  0.62500
E183  E   0.52111  0.66995  0.87500
E184  E   0.52111  0.83005  0.37500
E185  E   0.54222  0.00000  0.75000
E186  E   0.54222  0.50000  0.25000
E187  E   0.54495  0.09553  0.05058
E188  E   0.54495  0.40447  0.55058
E189  E   0.54495  0.59553  0.94942
E190  E   0.54495  0.90447  0.44942
E191  E   0.55058  0.04495  0.59553
E192  E   0.55058  0.45505  0.09553
E193  E   0.55058  0.54495  0.40447
E194  E   0.55058  0.95505  0.90447
E195  E   0.55331  0.00836  0.39611
E196  E   0.55331  0.49164  0.89611
E197  E   0.55331  0.50836  0.60389
E198  E   0.55331  0.99164  0.10389
E199  E   0.58005  0.22889  0.62500
E200  E   0.58005  0.27111  0.12500
E201  E   0.58005  0.72889  0.37500
E202  E   0.58005  0.77111  0.87500
E203  E   0.59553  0.05058  0.95505
E204  E   0.59553  0.44942  0.45505
E205  E   0.59553  0.55058  0.04495
E206  E   0.59553  0.94942  0.54495
E207  E   0.60389  0.05331  0.49164
E208  E   0.60389  0.44669  0.99164
E209  E   0.60389  0.55331  0.50836
E210  E   0.60389  0.94669  0.00836
E211  E   0.62500  0.02111  0.66995
E212  E   0.62500  0.08005  0.77111
E213  E   0.62500  0.41995  0.27111
E214  E   0.62500  0.47889  0.16995
E215  E   0.62500  0.52111  0.33005
E216  E   0.62500  0.58005  0.22889
E217  E   0.62500  0.91995  0.72889
E218  E   0.62500  0.97889  0.83005
E219  E   0.64611  0.24164  0.30331
E220  E   0.64611  0.25836  0.80331
E221  E   0.64611  0.74164  0.69669
E222  E   0.64611  0.75836  0.19669
E223  E   0.65447  0.20505  0.69942
E224  E   0.65447  0.29495  0.19942
E225  E   0.65447  0.70505  0.30058
E226  E   0.65447  0.79495  0.80058
E227  E   0.66995  0.12500  0.97889
E228  E   0.66995  0.37500  0.47889
E229  E   0.66995  0.62500  0.02111
E230  E   0.66995  0.87500  0.52111
E231  E   0.69669  0.14611  0.25836
E232  E   0.69669  0.35389  0.75836
E233  E   0.69669  0.64611  0.74164
E234  E   0.69669  0.85389  0.24164
E235  E   0.69942  0.15447  0.79495
E236  E   0.69942  0.34553  0.29495
E237  E   0.69942  0.65447  0.20505
E238  E   0.69942  0.84553  0.70505
E239  E   0.70505  0.19942  0.15447
E240  E   0.70505  0.30058  0.65447
E241  E   0.70505  0.69942  0.84553
E242  E   0.70505  0.80058  0.34553
E243  E   0.70778  0.00000  0.75000
E244  E   0.70778  0.50000  0.25000
E245  E   0.72889  0.12500  0.08005
E246  E   0.72889  0.37500  0.58005
E247  E   0.72889  0.62500  0.91995
E248  E   0.72889  0.87500  0.41995
E249  E   0.74164  0.19669  0.35389
E250  E   0.74164  0.30331  0.85389
E251  E   0.74164  0.69669  0.64611
E252  E   0.74164  0.80331  0.14611
E253  E   0.75000  0.04222  0.00000
E254  E   0.75000  0.20778  0.00000
E255  E   0.75000  0.29222  0.50000
E256  E   0.75000  0.45778  0.50000
E257  E   0.75000  0.54222  0.00000
E258  E   0.75000  0.70778  0.00000
E259  E   0.75000  0.79222  0.50000
E260  E   0.75000  0.95778  0.50000
E261  E   0.75836  0.19669  0.64611
E262  E   0.75836  0.30331  0.14611
E263  E   0.75836  0.69669  0.35389
E264  E   0.75836  0.80331  0.85389
E265  E   0.77111  0.12500  0.91995
E266  E   0.77111  0.37500  0.41995
E267  E   0.77111  0.62500  0.08005
E268  E   0.77111  0.87500  0.58005
E269  E   0.79222  0.00000  0.25000
E270  E   0.79222  0.50000  0.75000
E271  E   0.79495  0.19942  0.84553
E272  E   0.79495  0.30058  0.34553
E273  E   0.79495  0.69942  0.15447
E274  E   0.79495  0.80058  0.65447
E275  E   0.80058  0.15447  0.20505
E276  E   0.80058  0.34553  0.70505
E277  E   0.80058  0.65447  0.79495
E278  E   0.80058  0.84553  0.29495
E279  E   0.80331  0.14611  0.74164
E280  E   0.80331  0.35389  0.24164
E281  E   0.80331  0.64611  0.25836
E282  E   0.80331  0.85389  0.75836
E283  E   0.83005  0.12500  0.02111
E284  E   0.83005  0.37500  0.52111
E285  E   0.83005  0.62500  0.97889
E286  E   0.83005  0.87500  0.47889
E287  E   0.84553  0.20505  0.30058
E288  E   0.84553  0.29495  0.80058
E289  E   0.84553  0.70505  0.69942
E290  E   0.84553  0.79495  0.19942
E291  E   0.85389  0.24164  0.69669
E292  E   0.85389  0.25836  0.19669
E293  E   0.85389  0.74164  0.30331
E294  E   0.85389  0.75836  0.80331
E295  E   0.87500  0.02111  0.33005
E296  E   0.87500  0.08005  0.22889
E297  E   0.87500  0.41995  0.72889
E298  E   0.87500  0.47889  0.83005
E299  E   0.87500  0.52111  0.66995
E300  E   0.87500  0.58005  0.77111
E301  E   0.87500  0.91995  0.27111
E302  E   0.87500  0.97889  0.16995
E303  E   0.89611  0.05331  0.50836
E304  E   0.89611  0.44669  0.00836
E305  E   0.89611  0.55331  0.49164
E306  E   0.89611  0.94669  0.99164
E307  E   0.90447  0.05058  0.04495
E308  E   0.90447  0.44942  0.54495
E309  E   0.90447  0.55058  0.95505
E310  E   0.90447  0.94942  0.45505
E311  E   0.91995  0.22889  0.37500
E312  E   0.91995  0.27111  0.87500
E313  E   0.91995  0.72889  0.62500
E314  E   0.91995  0.77111  0.12500
E315  E   0.94669  0.00836  0.60389
E316  E   0.94669  0.49164  0.10389
E317  E   0.94669  0.50836  0.39611
E318  E   0.94669  0.99164  0.89611
E319  E   0.94942  0.04495  0.40447
E320  E   0.94942  0.45505  0.90447
E321  E   0.94942  0.54495  0.59553
E322  E   0.94942  0.95505  0.09553
E323  E   0.95505  0.09553  0.94942
E324  E   0.95505  0.40447  0.44942
E325  E   0.95505  0.59553  0.05058
E326  E   0.95505  0.90447  0.55058
E327  E   0.95778  0.00000  0.25000
E328  E   0.95778  0.50000  0.75000
E329  E   0.97889  0.16995  0.87500
E330  E   0.97889  0.33005  0.37500
E331  E   0.97889  0.66995  0.12500
E332  E   0.97889  0.83005  0.62500
E333  E   0.99164  0.10389  0.55331
E334  E   0.99164  0.39611  0.05331
E335  E   0.99164  0.60389  0.44669
E336  E   0.99164  0.89611  0.94669
loop_
