data_gez_R-3m:H  hall_number: 166, V_con: 18, EC_con: 3
_audit_creation_date              2025-03-05
_audit_creation_method            'MOFbuilder_1.0'
_symmetry_space_group_name_H-M    'P1'
_symmetry_Int_Tables_number       1
_symmetry_cell_setting            triclinic
loop_
_symmetry_equiv_pos_as_xyz
  x,y,z
_cell_length_a                    18.4036
_cell_length_b                    18.4036
_cell_length_c                    38.5824
_cell_angle_alpha                 90.0
_cell_angle_beta                  90.0
_cell_angle_gamma                 120.0
loop_
_atom_site_label
_atom_site_type_symbol
_atom_site_fract_x
_atom_site_fract_y
_atom_site_fract_z
V1    V   0.00000  0.00000  0.00000
V2    V   0.00000  0.50000  0.50000
V3    V   0.50000  0.00000  0.00000
V4    V   0.50000  0.50000  0.50000
EC1    EC   0.11975  0.23951  0.23956
EC2    EC   0.11975  0.73951  0.26044
EC3    EC   0.61975  0.26049  0.73956
EC4    EC   0.61975  0.76049  0.76044
E1    E   0.04691  0.27346  0.54689
E2    E   0.04691  0.77346  0.95311
E3    E   0.05988  0.44012  0.38022
E4    E   0.05988  0.94012  0.11978
E5    E   0.54691  0.22654  0.04689
E6    E   0.54691  0.72654  0.45311
E7    E   0.55988  0.05988  0.88022
E8    E   0.55988  0.55988  0.61978
loop_
