data_gfy_P63/mmc  hall_number: 488, V_con: 9, EC_con: 3
_audit_creation_date              2025-03-05
_audit_creation_method            'MOFbuilder_1.0'
_symmetry_space_group_name_H-M    'P1'
_symmetry_Int_Tables_number       1
_symmetry_cell_setting            triclinic
loop_
_symmetry_equiv_pos_as_xyz
  x,y,z
_cell_length_a                    28.8725
_cell_length_b                    28.8725
_cell_length_c                    14.902
_cell_angle_alpha                 90.0
_cell_angle_beta                  90.0
_cell_angle_gamma                 120.0
loop_
_atom_site_label
_atom_site_type_symbol
_atom_site_fract_x
_atom_site_fract_y
_atom_site_fract_z
V1    V   0.33333  0.66666  0.25000
V2    V   0.33333  0.66667  0.25000
V3    V   0.33334  0.66667  0.25000
V4    V   0.66666  0.33333  0.75000
V5    V   0.66667  0.33333  0.75000
V6    V   0.66667  0.33334  0.75000
EC1    EC   0.06660  0.53330  0.75000
EC2    EC   0.46670  0.53330  0.75000
EC3    EC   0.46670  0.93340  0.75000
EC4    EC   0.53330  0.06660  0.25000
EC5    EC   0.53330  0.46670  0.25000
EC6    EC   0.93340  0.46670  0.25000
E1    E   0.13337  0.56668  0.25000
E2    E   0.13337  0.56669  0.25000
E3    E   0.19997  0.59998  0.00000
E4    E   0.19997  0.59998  0.50000
E5    E   0.19997  0.59999  0.00000
E6    E   0.19997  0.59999  0.50000
E7    E   0.40001  0.59998  0.00000
E8    E   0.40001  0.59998  0.50000
E9    E   0.40001  0.80003  0.00000
E10   E   0.40001  0.80003  0.50000
E11   E   0.40002  0.59999  0.00000
E12   E   0.40002  0.59999  0.50000
E13   E   0.40002  0.80003  0.00000
E14   E   0.40002  0.80003  0.50000
E15   E   0.43331  0.56668  0.25000
E16   E   0.43331  0.86663  0.25000
E17   E   0.43332  0.56669  0.25000
E18   E   0.43332  0.86663  0.25000
E19   E   0.56668  0.13337  0.75000
E20   E   0.56668  0.43331  0.75000
E21   E   0.56669  0.13337  0.75000
E22   E   0.56669  0.43332  0.75000
E23   E   0.59998  0.19997  0.00000
E24   E   0.59998  0.19997  0.50000
E25   E   0.59998  0.40001  0.00000
E26   E   0.59998  0.40001  0.50000
E27   E   0.59999  0.19997  0.00000
E28   E   0.59999  0.19997  0.50000
E29   E   0.59999  0.40002  0.00000
E30   E   0.59999  0.40002  0.50000
E31   E   0.80003  0.40001  0.00000
E32   E   0.80003  0.40001  0.50000
E33   E   0.80003  0.40002  0.00000
E34   E   0.80003  0.40002  0.50000
E35   E   0.86663  0.43331  0.75000
E36   E   0.86663  0.43332  0.75000
loop_
