data_ggl_R-3c:H  hall_number: 167, V_con: 4, EC_con: 3
_audit_creation_date              2025-03-05
_audit_creation_method            'MOFbuilder_1.0'
_symmetry_space_group_name_H-M    'P1'
_symmetry_Int_Tables_number       1
_symmetry_cell_setting            triclinic
loop_
_symmetry_equiv_pos_as_xyz
  x,y,z
_cell_length_a                    75.7297
_cell_length_b                    75.7297
_cell_length_c                    37.9105
_cell_angle_alpha                 90.0
_cell_angle_beta                  90.0
_cell_angle_gamma                 120.0
loop_
_atom_site_label
_atom_site_type_symbol
_atom_site_fract_x
_atom_site_fract_y
_atom_site_fract_z
V1    V   0.00000  0.63886  0.25000
V2    V   0.00000  0.86114  0.75000
V3    V   0.50000  0.13886  0.25000
V4    V   0.50000  0.36114  0.75000
EC1    EC   0.32787  0.10019  0.19997
EC2    EC   0.32787  0.39981  0.69997
EC3    EC   0.82787  0.60019  0.30003
EC4    EC   0.82787  0.89981  0.80003
E1    E   0.00273  0.60267  0.35835
E2    E   0.00273  0.89733  0.85835
E3    E   0.05283  0.70286  0.30832
E4    E   0.05283  0.79714  0.80832
E5    E   0.33333  0.16667  0.16667
E6    E   0.33333  0.33333  0.66667
E7    E   0.50273  0.10267  0.14165
E8    E   0.50273  0.39733  0.64165
E9    E   0.55283  0.20286  0.19168
E10   E   0.55283  0.29714  0.69168
E11   E   0.83333  0.66667  0.33333
E12   E   0.83333  0.83333  0.83333
loop_
