data_hbo-e_Pm-3n  hall_number: 520, V_con: 6, EC_con: 6
_audit_creation_date              2025-03-05
_audit_creation_method            'MOFbuilder_1.0'
_symmetry_space_group_name_H-M    'P1'
_symmetry_Int_Tables_number       1
_symmetry_cell_setting            triclinic
loop_
_symmetry_equiv_pos_as_xyz
  x,y,z
_cell_length_a                    39.7122
_cell_length_b                    39.7122
_cell_length_c                    39.7122
_cell_angle_alpha                 90.0
_cell_angle_beta                  90.0
_cell_angle_gamma                 90.0
loop_
_atom_site_label
_atom_site_type_symbol
_atom_site_fract_x
_atom_site_fract_y
_atom_site_fract_z
V1    V   0.00000  0.17731  0.35462
V2    V   0.00000  0.17731  0.64538
V3    V   0.00000  0.82269  0.35462
V4    V   0.00000  0.82269  0.64538
V5    V   0.14538  0.32269  0.50000
V6    V   0.14538  0.67731  0.50000
V7    V   0.17731  0.35462  0.00000
V8    V   0.17731  0.64538  0.00000
V9    V   0.32269  0.50000  0.14538
V10   V   0.32269  0.50000  0.85462
V11   V   0.35462  0.00000  0.17731
V12   V   0.35462  0.00000  0.82269
V13   V   0.50000  0.14538  0.32269
V14   V   0.50000  0.14538  0.67731
V15   V   0.50000  0.85462  0.32269
V16   V   0.50000  0.85462  0.67731
V17   V   0.64538  0.00000  0.17731
V18   V   0.64538  0.00000  0.82269
V19   V   0.67731  0.50000  0.14538
V20   V   0.67731  0.50000  0.85462
V21   V   0.82269  0.35462  0.00000
V22   V   0.82269  0.64538  0.00000
V23   V   0.85462  0.32269  0.50000
V24   V   0.85462  0.67731  0.50000
EC1    EC   0.14720  0.35280  0.25000
EC2    EC   0.14720  0.35280  0.75000
EC3    EC   0.14720  0.64720  0.25000
EC4    EC   0.14720  0.64720  0.75000
EC5    EC   0.25000  0.14720  0.35280
EC6    EC   0.25000  0.14720  0.64720
EC7    EC   0.25000  0.85280  0.35280
EC8    EC   0.25000  0.85280  0.64720
EC9    EC   0.35280  0.25000  0.14720
EC10   EC   0.35280  0.25000  0.85280
EC11   EC   0.35280  0.75000  0.14720
EC12   EC   0.35280  0.75000  0.85280
EC13   EC   0.64720  0.25000  0.14720
EC14   EC   0.64720  0.25000  0.85280
EC15   EC   0.64720  0.75000  0.14720
EC16   EC   0.64720  0.75000  0.85280
EC17   EC   0.75000  0.14720  0.35280
EC18   EC   0.75000  0.14720  0.64720
EC19   EC   0.75000  0.85280  0.35280
EC20   EC   0.75000  0.85280  0.64720
EC21   EC   0.85280  0.35280  0.25000
EC22   EC   0.85280  0.35280  0.75000
EC23   EC   0.85280  0.64720  0.25000
EC24   EC   0.85280  0.64720  0.75000
E1    E   0.07269  0.25000  0.42731
E2    E   0.07269  0.25000  0.57269
E3    E   0.07269  0.75000  0.42731
E4    E   0.07269  0.75000  0.57269
E5    E   0.07269  0.25000  0.42731
E6    E   0.07269  0.25000  0.57269
E7    E   0.07269  0.75000  0.42731
E8    E   0.07269  0.75000  0.57269
E9    E   0.07360  0.26506  0.30231
E10   E   0.07360  0.26506  0.69769
E11   E   0.07360  0.73494  0.30231
E12   E   0.07360  0.73494  0.69769
E13   E   0.12500  0.16225  0.35371
E14   E   0.12500  0.16225  0.64629
E15   E   0.12500  0.83775  0.35371
E16   E   0.12500  0.83775  0.64629
E17   E   0.14629  0.33775  0.37500
E18   E   0.14629  0.33775  0.62500
E19   E   0.14629  0.66225  0.37500
E20   E   0.14629  0.66225  0.62500
E21   E   0.16225  0.35371  0.12500
E22   E   0.16225  0.35371  0.87500
E23   E   0.16225  0.64629  0.12500
E24   E   0.16225  0.64629  0.87500
E25   E   0.19769  0.23494  0.42640
E26   E   0.19769  0.23494  0.57360
E27   E   0.19769  0.76506  0.42640
E28   E   0.19769  0.76506  0.57360
E29   E   0.19860  0.25000  0.30140
E30   E   0.19860  0.25000  0.69860
E31   E   0.19860  0.75000  0.30140
E32   E   0.19860  0.75000  0.69860
E33   E   0.23494  0.42640  0.19769
E34   E   0.23494  0.42640  0.80231
E35   E   0.23494  0.57360  0.19769
E36   E   0.23494  0.57360  0.80231
E37   E   0.25000  0.30140  0.19860
E38   E   0.25000  0.30140  0.80140
E39   E   0.25000  0.42731  0.07269
E40   E   0.25000  0.42731  0.92731
E41   E   0.25000  0.42731  0.07269
E42   E   0.25000  0.42731  0.92731
E43   E   0.25000  0.57269  0.07269
E44   E   0.25000  0.57269  0.92731
E45   E   0.25000  0.57269  0.07269
E46   E   0.25000  0.57269  0.92731
E47   E   0.25000  0.69860  0.19860
E48   E   0.25000  0.69860  0.80140
E49   E   0.26506  0.30231  0.07360
E50   E   0.26506  0.30231  0.92640
E51   E   0.26506  0.69769  0.07360
E52   E   0.26506  0.69769  0.92640
E53   E   0.30140  0.19860  0.25000
E54   E   0.30140  0.19860  0.75000
E55   E   0.30140  0.80140  0.25000
E56   E   0.30140  0.80140  0.75000
E57   E   0.30231  0.07360  0.26506
E58   E   0.30231  0.07360  0.73494
E59   E   0.30231  0.92640  0.26506
E60   E   0.30231  0.92640  0.73494
E61   E   0.33775  0.37500  0.14629
E62   E   0.33775  0.37500  0.85371
E63   E   0.33775  0.62500  0.14629
E64   E   0.33775  0.62500  0.85371
E65   E   0.35371  0.12500  0.16225
E66   E   0.35371  0.12500  0.83775
E67   E   0.35371  0.87500  0.16225
E68   E   0.35371  0.87500  0.83775
E69   E   0.37500  0.14629  0.33775
E70   E   0.37500  0.14629  0.66225
E71   E   0.37500  0.85371  0.33775
E72   E   0.37500  0.85371  0.66225
E73   E   0.42640  0.19769  0.23494
E74   E   0.42640  0.19769  0.76506
E75   E   0.42640  0.80231  0.23494
E76   E   0.42640  0.80231  0.76506
E77   E   0.42731  0.07269  0.25000
E78   E   0.42731  0.07269  0.75000
E79   E   0.42731  0.92731  0.25000
E80   E   0.42731  0.92731  0.75000
E81   E   0.42731  0.07269  0.25000
E82   E   0.42731  0.07269  0.75000
E83   E   0.42731  0.92731  0.25000
E84   E   0.42731  0.92731  0.75000
E85   E   0.57269  0.07269  0.25000
E86   E   0.57269  0.07269  0.75000
E87   E   0.57269  0.92731  0.25000
E88   E   0.57269  0.92731  0.75000
E89   E   0.57269  0.07269  0.25000
E90   E   0.57269  0.07269  0.75000
E91   E   0.57269  0.92731  0.25000
E92   E   0.57269  0.92731  0.75000
E93   E   0.57360  0.19769  0.23494
E94   E   0.57360  0.19769  0.76506
E95   E   0.57360  0.80231  0.23494
E96   E   0.57360  0.80231  0.76506
E97   E   0.62500  0.14629  0.33775
E98   E   0.62500  0.14629  0.66225
E99   E   0.62500  0.85371  0.33775
E100  E   0.62500  0.85371  0.66225
E101  E   0.64629  0.12500  0.16225
E102  E   0.64629  0.12500  0.83775
E103  E   0.64629  0.87500  0.16225
E104  E   0.64629  0.87500  0.83775
E105  E   0.66225  0.37500  0.14629
E106  E   0.66225  0.37500  0.85371
E107  E   0.66225  0.62500  0.14629
E108  E   0.66225  0.62500  0.85371
E109  E   0.69769  0.07360  0.26506
E110  E   0.69769  0.07360  0.73494
E111  E   0.69769  0.92640  0.26506
E112  E   0.69769  0.92640  0.73494
E113  E   0.69860  0.19860  0.25000
E114  E   0.69860  0.19860  0.75000
E115  E   0.69860  0.80140  0.25000
E116  E   0.69860  0.80140  0.75000
E117  E   0.73494  0.30231  0.07360
E118  E   0.73494  0.30231  0.92640
E119  E   0.73494  0.69769  0.07360
E120  E   0.73494  0.69769  0.92640
E121  E   0.75000  0.30140  0.19860
E122  E   0.75000  0.30140  0.80140
E123  E   0.75000  0.42731  0.07269
E124  E   0.75000  0.42731  0.92731
E125  E   0.75000  0.42731  0.07269
E126  E   0.75000  0.42731  0.92731
E127  E   0.75000  0.57269  0.07269
E128  E   0.75000  0.57269  0.92731
E129  E   0.75000  0.57269  0.07269
E130  E   0.75000  0.57269  0.92731
E131  E   0.75000  0.69860  0.19860
E132  E   0.75000  0.69860  0.80140
E133  E   0.76506  0.42640  0.19769
E134  E   0.76506  0.42640  0.80231
E135  E   0.76506  0.57360  0.19769
E136  E   0.76506  0.57360  0.80231
E137  E   0.80140  0.25000  0.30140
E138  E   0.80140  0.25000  0.69860
E139  E   0.80140  0.75000  0.30140
E140  E   0.80140  0.75000  0.69860
E141  E   0.80231  0.23494  0.42640
E142  E   0.80231  0.23494  0.57360
E143  E   0.80231  0.76506  0.42640
E144  E   0.80231  0.76506  0.57360
E145  E   0.83775  0.35371  0.12500
E146  E   0.83775  0.35371  0.87500
E147  E   0.83775  0.64629  0.12500
E148  E   0.83775  0.64629  0.87500
E149  E   0.85371  0.33775  0.37500
E150  E   0.85371  0.33775  0.62500
E151  E   0.85371  0.66225  0.37500
E152  E   0.85371  0.66225  0.62500
E153  E   0.87500  0.16225  0.35371
E154  E   0.87500  0.16225  0.64629
E155  E   0.87500  0.83775  0.35371
E156  E   0.87500  0.83775  0.64629
E157  E   0.92640  0.26506  0.30231
E158  E   0.92640  0.26506  0.69769
E159  E   0.92640  0.73494  0.30231
E160  E   0.92640  0.73494  0.69769
E161  E   0.92731  0.25000  0.42731
E162  E   0.92731  0.25000  0.57269
E163  E   0.92731  0.75000  0.42731
E164  E   0.92731  0.75000  0.57269
E165  E   0.92731  0.25000  0.42731
E166  E   0.92731  0.25000  0.57269
E167  E   0.92731  0.75000  0.42731
E168  E   0.92731  0.75000  0.57269
loop_
