data_hci_Cmcm  hall_number: 298, V_con: 7, EC_con: 7
_audit_creation_date              2025-03-05
_audit_creation_method            'MOFbuilder_1.0'
_symmetry_space_group_name_H-M    'P1'
_symmetry_Int_Tables_number       1
_symmetry_cell_setting            triclinic
loop_
_symmetry_equiv_pos_as_xyz
  x,y,z
_cell_length_a                    28.2979
_cell_length_b                    18.1974
_cell_length_c                    50.1283
_cell_angle_alpha                 90.0
_cell_angle_beta                  90.0
_cell_angle_gamma                 90.0
loop_
_atom_site_label
_atom_site_type_symbol
_atom_site_fract_x
_atom_site_fract_y
_atom_site_fract_z
V1    V   0.17669  0.04702  0.25000
V2    V   0.17669  0.95298  0.75000
V3    V   0.32331  0.45298  0.75000
V4    V   0.32331  0.54702  0.25000
V5    V   0.67669  0.45298  0.75000
V6    V   0.67669  0.54702  0.25000
V7    V   0.82331  0.04702  0.25000
V8    V   0.82331  0.95298  0.75000
EC1    EC   0.17669  0.34901  0.08333
EC2    EC   0.17669  0.34901  0.41667
EC3    EC   0.17669  0.65099  0.58333
EC4    EC   0.17669  0.65099  0.91667
EC5    EC   0.32331  0.15099  0.58333
EC6    EC   0.32331  0.15099  0.91667
EC7    EC   0.32331  0.84901  0.08333
EC8    EC   0.32331  0.84901  0.41667
EC9    EC   0.67669  0.15099  0.58333
EC10   EC   0.67669  0.15099  0.91667
EC11   EC   0.67669  0.84901  0.08333
EC12   EC   0.67669  0.84901  0.41667
EC13   EC   0.82331  0.34901  0.08333
EC14   EC   0.82331  0.34901  0.41667
EC15   EC   0.82331  0.65099  0.58333
EC16   EC   0.82331  0.65099  0.91667
E1    E   0.00000  0.04702  0.25000
E2    E   0.00000  0.34901  0.08333
E3    E   0.00000  0.34901  0.41667
E4    E   0.00000  0.65099  0.58333
E5    E   0.00000  0.65099  0.91667
E6    E   0.00000  0.95298  0.75000
E7    E   0.17669  0.19801  0.16667
E8    E   0.17669  0.19801  0.33333
E9    E   0.17669  0.50000  0.00000
E10   E   0.17669  0.50000  0.50000
E11   E   0.17669  0.80199  0.66667
E12   E   0.17669  0.80199  0.83333
E13   E   0.25000  0.05199  0.66667
E14   E   0.25000  0.05199  0.83333
E15   E   0.25000  0.09901  0.08333
E16   E   0.25000  0.09901  0.41667
E17   E   0.25000  0.20298  0.75000
E18   E   0.25000  0.25000  0.00000
E19   E   0.25000  0.25000  0.50000
E20   E   0.25000  0.29702  0.25000
E21   E   0.25000  0.40099  0.58333
E22   E   0.25000  0.40099  0.91667
E23   E   0.25000  0.44801  0.16667
E24   E   0.25000  0.44801  0.33333
E25   E   0.25000  0.55199  0.66667
E26   E   0.25000  0.55199  0.83333
E27   E   0.25000  0.59901  0.08333
E28   E   0.25000  0.59901  0.41667
E29   E   0.25000  0.70298  0.75000
E30   E   0.25000  0.75000  0.00000
E31   E   0.25000  0.75000  0.50000
E32   E   0.25000  0.79702  0.25000
E33   E   0.25000  0.90099  0.58333
E34   E   0.25000  0.90099  0.91667
E35   E   0.25000  0.94801  0.16667
E36   E   0.25000  0.94801  0.33333
E37   E   0.32331  0.00000  0.00000
E38   E   0.32331  0.00000  0.50000
E39   E   0.32331  0.30199  0.66667
E40   E   0.32331  0.30199  0.83333
E41   E   0.32331  0.69801  0.16667
E42   E   0.32331  0.69801  0.33333
E43   E   0.50000  0.15099  0.58333
E44   E   0.50000  0.15099  0.91667
E45   E   0.50000  0.45298  0.75000
E46   E   0.50000  0.54702  0.25000
E47   E   0.50000  0.84901  0.08333
E48   E   0.50000  0.84901  0.41667
E49   E   0.67669  0.00000  0.00000
E50   E   0.67669  0.00000  0.50000
E51   E   0.67669  0.30199  0.66667
E52   E   0.67669  0.30199  0.83333
E53   E   0.67669  0.69801  0.16667
E54   E   0.67669  0.69801  0.33333
E55   E   0.75000  0.05199  0.66667
E56   E   0.75000  0.05199  0.83333
E57   E   0.75000  0.09901  0.08333
E58   E   0.75000  0.09901  0.41667
E59   E   0.75000  0.20298  0.75000
E60   E   0.75000  0.25000  0.00000
E61   E   0.75000  0.25000  0.50000
E62   E   0.75000  0.29702  0.25000
E63   E   0.75000  0.40099  0.58333
E64   E   0.75000  0.40099  0.91667
E65   E   0.75000  0.44801  0.16667
E66   E   0.75000  0.44801  0.33333
E67   E   0.75000  0.55199  0.66667
E68   E   0.75000  0.55199  0.83333
E69   E   0.75000  0.59901  0.08333
E70   E   0.75000  0.59901  0.41667
E71   E   0.75000  0.70298  0.75000
E72   E   0.75000  0.75000  0.00000
E73   E   0.75000  0.75000  0.50000
E74   E   0.75000  0.79702  0.25000
E75   E   0.75000  0.90099  0.58333
E76   E   0.75000  0.90099  0.91667
E77   E   0.75000  0.94801  0.16667
E78   E   0.75000  0.94801  0.33333
E79   E   0.82331  0.19801  0.16667
E80   E   0.82331  0.19801  0.33333
E81   E   0.82331  0.50000  0.00000
E82   E   0.82331  0.50000  0.50000
E83   E   0.82331  0.80199  0.66667
E84   E   0.82331  0.80199  0.83333
loop_
