data_hcj_C12/m1  hall_number: 71, V_con: 7, EC_con: 7
_audit_creation_date              2025-03-05
_audit_creation_method            'MOFbuilder_1.0'
_symmetry_space_group_name_H-M    'P1'
_symmetry_Int_Tables_number       1
_symmetry_cell_setting            triclinic
loop_
_symmetry_equiv_pos_as_xyz
  x,y,z
_cell_length_a                    18.2016
_cell_length_b                    28.2884
_cell_length_c                    25.662
_cell_angle_alpha                 90.0
_cell_angle_beta                  102.363
_cell_angle_gamma                 90.0
loop_
_atom_site_label
_atom_site_type_symbol
_atom_site_fract_x
_atom_site_fract_y
_atom_site_fract_z
V1    V   0.00000  0.32325  0.00000
V2    V   0.00000  0.67675  0.00000
V3    V   0.50000  0.17675  0.50000
V4    V   0.50000  0.82325  0.50000
EC1    EC   0.20123  0.32325  0.16667
EC2    EC   0.20123  0.67675  0.83333
EC3    EC   0.29877  0.17675  0.33333
EC4    EC   0.29877  0.82325  0.66667
EC5    EC   0.70123  0.17675  0.33333
EC6    EC   0.70123  0.82325  0.66667
EC7    EC   0.79877  0.32325  0.16667
EC8    EC   0.79877  0.67675  0.83333
E1    E   0.00000  0.32325  0.00000
E2    E   0.00000  0.50000  0.00000
E3    E   0.00000  0.67675  0.00000
E4    E   0.04877  0.25000  0.16667
E5    E   0.04877  0.75000  0.83333
E6    E   0.10061  0.32325  0.83333
E7    E   0.10061  0.67675  0.16667
E8    E   0.14939  0.25000  0.16667
E9    E   0.14939  0.75000  0.83333
E10   E   0.20123  0.50000  0.16667
E11   E   0.20123  0.50000  0.83333
E12   E   0.25000  0.25000  0.00000
E13   E   0.25000  0.25000  0.50000
E14   E   0.25000  0.75000  0.00000
E15   E   0.25000  0.75000  0.50000
E16   E   0.29877  0.00000  0.33333
E17   E   0.29877  0.00000  0.66667
E18   E   0.35061  0.25000  0.33333
E19   E   0.35061  0.75000  0.66667
E20   E   0.39939  0.17675  0.66667
E21   E   0.39939  0.82325  0.33333
E22   E   0.45123  0.25000  0.33333
E23   E   0.45123  0.75000  0.66667
E24   E   0.50000  0.00000  0.50000
E25   E   0.50000  0.17675  0.50000
E26   E   0.50000  0.82325  0.50000
E27   E   0.54877  0.25000  0.33333
E28   E   0.54877  0.75000  0.66667
E29   E   0.60061  0.17675  0.66667
E30   E   0.60061  0.82325  0.33333
E31   E   0.64939  0.25000  0.33333
E32   E   0.64939  0.75000  0.66667
E33   E   0.70123  0.00000  0.33333
E34   E   0.70123  0.00000  0.66667
E35   E   0.75000  0.25000  0.00000
E36   E   0.75000  0.25000  0.50000
E37   E   0.75000  0.75000  0.00000
E38   E   0.75000  0.75000  0.50000
E39   E   0.79877  0.50000  0.16667
E40   E   0.79877  0.50000  0.83333
E41   E   0.85061  0.25000  0.16667
E42   E   0.85061  0.75000  0.83333
E43   E   0.89939  0.32325  0.83333
E44   E   0.89939  0.67675  0.16667
E45   E   0.95123  0.25000  0.16667
E46   E   0.95123  0.75000  0.83333
loop_
