data_hea_R32:H  hall_number: 445, V_con: 6, EC_con: 4
_audit_creation_date              2025-03-05
_audit_creation_method            'MOFbuilder_1.0'
_symmetry_space_group_name_H-M    'P1'
_symmetry_Int_Tables_number       1
_symmetry_cell_setting            triclinic
loop_
_symmetry_equiv_pos_as_xyz
  x,y,z
_cell_length_a                    24.6536
_cell_length_b                    24.6536
_cell_length_c                    35.2288
_cell_angle_alpha                 90.0
_cell_angle_beta                  90.0
_cell_angle_gamma                 120.0
loop_
_atom_site_label
_atom_site_type_symbol
_atom_site_fract_x
_atom_site_fract_y
_atom_site_fract_z
V1    V   0.00000  0.00000  0.19641
V2    V   0.00000  0.00000  0.80359
V3    V   0.00000  0.19641  0.00000
V4    V   0.00000  0.80359  0.00000
V5    V   0.19641  0.00000  0.00000
V6    V   0.80359  0.00000  0.00000
EC1    EC   0.00000  0.00000  0.29284
EC2    EC   0.00000  0.00000  0.70716
EC3    EC   0.00000  0.29284  0.00000
EC4    EC   0.00000  0.70716  0.00000
EC5    EC   0.29284  0.00000  0.00000
EC6    EC   0.70716  0.00000  0.00000
E1    E   0.00000  0.85358  0.09821
E2    E   0.00000  0.90179  0.14642
E3    E   0.09821  0.00000  0.85358
E4    E   0.14642  0.00000  0.90179
E5    E   0.16667  0.26487  0.18691
E6    E   0.18691  0.16667  0.26487
E7    E   0.26487  0.18691  0.16667
E8    E   0.73513  0.83333  0.81309
E9    E   0.81309  0.73513  0.83333
E10   E   0.83333  0.81309  0.73513
E11   E   0.85358  0.09821  0.00000
E12   E   0.90179  0.14642  0.00000
loop_
