data_hec_Im-3  hall_number: 500, V_con: 3, EC_con: 3
_audit_creation_date              2025-03-05
_audit_creation_method            'MOFbuilder_1.0'
_symmetry_space_group_name_H-M    'P1'
_symmetry_Int_Tables_number       1
_symmetry_cell_setting            triclinic
loop_
_symmetry_equiv_pos_as_xyz
  x,y,z
_cell_length_a                    65.3761
_cell_length_b                    65.3761
_cell_length_c                    65.3761
_cell_angle_alpha                 90.0
_cell_angle_beta                  90.0
_cell_angle_gamma                 90.0
loop_
_atom_site_label
_atom_site_type_symbol
_atom_site_fract_x
_atom_site_fract_y
_atom_site_fract_z
V1    V   0.13047  0.26284  0.34368
V2    V   0.13047  0.26284  0.65632
V3    V   0.13047  0.73716  0.34368
V4    V   0.13047  0.73716  0.65632
V5    V   0.15632  0.36953  0.23716
V6    V   0.15632  0.36953  0.76284
V7    V   0.15632  0.63047  0.23716
V8    V   0.15632  0.63047  0.76284
V9    V   0.23716  0.15632  0.36953
V10   V   0.23716  0.15632  0.63047
V11   V   0.23716  0.84368  0.36953
V12   V   0.23716  0.84368  0.63047
V13   V   0.26284  0.34368  0.13047
V14   V   0.26284  0.34368  0.86953
V15   V   0.26284  0.65632  0.13047
V16   V   0.26284  0.65632  0.86953
V17   V   0.34368  0.13047  0.26284
V18   V   0.34368  0.13047  0.73716
V19   V   0.34368  0.86953  0.26284
V20   V   0.34368  0.86953  0.73716
V21   V   0.36953  0.23716  0.15632
V22   V   0.36953  0.23716  0.84368
V23   V   0.36953  0.76284  0.15632
V24   V   0.36953  0.76284  0.84368
V25   V   0.63047  0.23716  0.15632
V26   V   0.63047  0.23716  0.84368
V27   V   0.63047  0.76284  0.15632
V28   V   0.63047  0.76284  0.84368
V29   V   0.65632  0.13047  0.26284
V30   V   0.65632  0.13047  0.73716
V31   V   0.65632  0.86953  0.26284
V32   V   0.65632  0.86953  0.73716
V33   V   0.73716  0.34368  0.13047
V34   V   0.73716  0.34368  0.86953
V35   V   0.73716  0.65632  0.13047
V36   V   0.73716  0.65632  0.86953
V37   V   0.76284  0.15632  0.36953
V38   V   0.76284  0.15632  0.63047
V39   V   0.76284  0.84368  0.36953
V40   V   0.76284  0.84368  0.63047
V41   V   0.84368  0.36953  0.23716
V42   V   0.84368  0.36953  0.76284
V43   V   0.84368  0.63047  0.23716
V44   V   0.84368  0.63047  0.76284
V45   V   0.86953  0.26284  0.34368
V46   V   0.86953  0.26284  0.65632
V47   V   0.86953  0.73716  0.34368
V48   V   0.86953  0.73716  0.65632
EC1    EC   0.00000  0.26281  0.42352
EC2    EC   0.00000  0.26281  0.57648
EC3    EC   0.00000  0.73719  0.42352
EC4    EC   0.00000  0.73719  0.57648
EC5    EC   0.07648  0.50000  0.23719
EC6    EC   0.07648  0.50000  0.76281
EC7    EC   0.23719  0.07648  0.50000
EC8    EC   0.23719  0.92352  0.50000
EC9    EC   0.26281  0.42352  0.00000
EC10   EC   0.26281  0.57648  0.00000
EC11   EC   0.42352  0.00000  0.26281
EC12   EC   0.42352  0.00000  0.73719
EC13   EC   0.50000  0.23719  0.07648
EC14   EC   0.50000  0.23719  0.92352
EC15   EC   0.50000  0.76281  0.07648
EC16   EC   0.50000  0.76281  0.92352
EC17   EC   0.57648  0.00000  0.26281
EC18   EC   0.57648  0.00000  0.73719
EC19   EC   0.73719  0.42352  0.00000
EC20   EC   0.73719  0.57648  0.00000
EC21   EC   0.76281  0.07648  0.50000
EC22   EC   0.76281  0.92352  0.50000
EC23   EC   0.92352  0.50000  0.23719
EC24   EC   0.92352  0.50000  0.76281
E1    E   0.00000  0.26281  0.50000
E2    E   0.00000  0.50000  0.23719
E3    E   0.00000  0.50000  0.76281
E4    E   0.00000  0.73719  0.50000
E5    E   0.06523  0.26283  0.38360
E6    E   0.06523  0.26283  0.61640
E7    E   0.06523  0.73717  0.38360
E8    E   0.06523  0.73717  0.61640
E9    E   0.11640  0.43477  0.23717
E10   E   0.11640  0.43477  0.76283
E11   E   0.11640  0.56523  0.23717
E12   E   0.11640  0.56523  0.76283
E13   E   0.14340  0.31619  0.29042
E14   E   0.14340  0.31619  0.70958
E15   E   0.14340  0.68381  0.29042
E16   E   0.14340  0.68381  0.70958
E17   E   0.18381  0.20958  0.35660
E18   E   0.18381  0.20958  0.64340
E19   E   0.18381  0.79042  0.35660
E20   E   0.18381  0.79042  0.64340
E21   E   0.20958  0.35660  0.18381
E22   E   0.20958  0.35660  0.81619
E23   E   0.20958  0.64340  0.18381
E24   E   0.20958  0.64340  0.81619
E25   E   0.23717  0.11640  0.43477
E26   E   0.23717  0.11640  0.56523
E27   E   0.23717  0.88360  0.43477
E28   E   0.23717  0.88360  0.56523
E29   E   0.23719  0.00000  0.50000
E30   E   0.26281  0.50000  0.00000
E31   E   0.26283  0.38360  0.06523
E32   E   0.26283  0.38360  0.93477
E33   E   0.26283  0.61640  0.06523
E34   E   0.26283  0.61640  0.93477
E35   E   0.29042  0.14340  0.31619
E36   E   0.29042  0.14340  0.68381
E37   E   0.29042  0.85660  0.31619
E38   E   0.29042  0.85660  0.68381
E39   E   0.31619  0.29042  0.14340
E40   E   0.31619  0.29042  0.85660
E41   E   0.31619  0.70958  0.14340
E42   E   0.31619  0.70958  0.85660
E43   E   0.35660  0.18381  0.20958
E44   E   0.35660  0.18381  0.79042
E45   E   0.35660  0.81619  0.20958
E46   E   0.35660  0.81619  0.79042
E47   E   0.38360  0.06523  0.26283
E48   E   0.38360  0.06523  0.73717
E49   E   0.38360  0.93477  0.26283
E50   E   0.38360  0.93477  0.73717
E51   E   0.43477  0.23717  0.11640
E52   E   0.43477  0.23717  0.88360
E53   E   0.43477  0.76283  0.11640
E54   E   0.43477  0.76283  0.88360
E55   E   0.50000  0.00000  0.26281
E56   E   0.50000  0.00000  0.73719
E57   E   0.50000  0.23719  0.00000
E58   E   0.50000  0.76281  0.00000
E59   E   0.56523  0.23717  0.11640
E60   E   0.56523  0.23717  0.88360
E61   E   0.56523  0.76283  0.11640
E62   E   0.56523  0.76283  0.88360
E63   E   0.61640  0.06523  0.26283
E64   E   0.61640  0.06523  0.73717
E65   E   0.61640  0.93477  0.26283
E66   E   0.61640  0.93477  0.73717
E67   E   0.64340  0.18381  0.20958
E68   E   0.64340  0.18381  0.79042
E69   E   0.64340  0.81619  0.20958
E70   E   0.64340  0.81619  0.79042
E71   E   0.68381  0.29042  0.14340
E72   E   0.68381  0.29042  0.85660
E73   E   0.68381  0.70958  0.14340
E74   E   0.68381  0.70958  0.85660
E75   E   0.70958  0.14340  0.31619
E76   E   0.70958  0.14340  0.68381
E77   E   0.70958  0.85660  0.31619
E78   E   0.70958  0.85660  0.68381
E79   E   0.73717  0.38360  0.06523
E80   E   0.73717  0.38360  0.93477
E81   E   0.73717  0.61640  0.06523
E82   E   0.73717  0.61640  0.93477
E83   E   0.73719  0.50000  0.00000
E84   E   0.76281  0.00000  0.50000
E85   E   0.76283  0.11640  0.43477
E86   E   0.76283  0.11640  0.56523
E87   E   0.76283  0.88360  0.43477
E88   E   0.76283  0.88360  0.56523
E89   E   0.79042  0.35660  0.18381
E90   E   0.79042  0.35660  0.81619
E91   E   0.79042  0.64340  0.18381
E92   E   0.79042  0.64340  0.81619
E93   E   0.81619  0.20958  0.35660
E94   E   0.81619  0.20958  0.64340
E95   E   0.81619  0.79042  0.35660
E96   E   0.81619  0.79042  0.64340
E97   E   0.85660  0.31619  0.29042
E98   E   0.85660  0.31619  0.70958
E99   E   0.85660  0.68381  0.29042
E100  E   0.85660  0.68381  0.70958
E101  E   0.88360  0.43477  0.23717
E102  E   0.88360  0.43477  0.76283
E103  E   0.88360  0.56523  0.23717
E104  E   0.88360  0.56523  0.76283
E105  E   0.93477  0.26283  0.38360
E106  E   0.93477  0.26283  0.61640
E107  E   0.93477  0.73717  0.38360
E108  E   0.93477  0.73717  0.61640
loop_
