data_hed_Fd-3m:2  hall_number: 526, V_con: 3, EC_con: 3
_audit_creation_date              2025-03-05
_audit_creation_method            'MOFbuilder_1.0'
_symmetry_space_group_name_H-M    'P1'
_symmetry_Int_Tables_number       1
_symmetry_cell_setting            triclinic
loop_
_symmetry_equiv_pos_as_xyz
  x,y,z
_cell_length_a                    12.92063
_cell_length_b                    12.92063
_cell_length_c                    12.92063
_cell_angle_alpha                 90.0
_cell_angle_beta                  90.0
_cell_angle_gamma                 90.0
loop_
_atom_site_label
_atom_site_type_symbol
_atom_site_fract_x
_atom_site_fract_y
_atom_site_fract_z
V1    V   0.00319  0.30154  0.89374
V2    V   0.00319  0.35626  0.94846
V3    V   0.00319  0.39374  0.80154
V4    V   0.00319  0.44846  0.85626
V5    V   0.00319  0.80154  0.39374
V6    V   0.00319  0.85626  0.44846
V7    V   0.00319  0.89374  0.30154
V8    V   0.00319  0.94846  0.35626
V9    V   0.05154  0.10626  0.75319
V10   V   0.05154  0.14374  0.49681
V11   V   0.05154  0.25319  0.60626
V12   V   0.05154  0.49681  0.14374
V13   V   0.05154  0.60626  0.25319
V14   V   0.05154  0.64374  0.99681
V15   V   0.05154  0.75319  0.10626
V16   V   0.05154  0.99681  0.64374
V17   V   0.10626  0.05154  0.75319
V18   V   0.10626  0.19846  0.49681
V19   V   0.10626  0.25319  0.55154
V20   V   0.10626  0.49681  0.19846
V21   V   0.10626  0.55154  0.25319
V22   V   0.10626  0.69846  0.99681
V23   V   0.10626  0.75319  0.05154
V24   V   0.10626  0.99681  0.69846
V25   V   0.14374  0.05154  0.49681
V26   V   0.14374  0.19846  0.75319
V27   V   0.14374  0.25319  0.69846
V28   V   0.14374  0.49681  0.05154
V29   V   0.14374  0.55154  0.99681
V30   V   0.14374  0.69846  0.25319
V31   V   0.14374  0.75319  0.19846
V32   V   0.14374  0.99681  0.55154
V33   V   0.19846  0.10626  0.49681
V34   V   0.19846  0.14374  0.75319
V35   V   0.19846  0.25319  0.64374
V36   V   0.19846  0.49681  0.10626
V37   V   0.19846  0.60626  0.99681
V38   V   0.19846  0.64374  0.25319
V39   V   0.19846  0.75319  0.14374
V40   V   0.19846  0.99681  0.60626
V41   V   0.24681  0.30154  0.35626
V42   V   0.24681  0.35626  0.30154
V43   V   0.24681  0.39374  0.44846
V44   V   0.24681  0.44846  0.39374
V45   V   0.24681  0.80154  0.85626
V46   V   0.24681  0.85626  0.80154
V47   V   0.24681  0.89374  0.94846
V48   V   0.24681  0.94846  0.89374
V49   V   0.25319  0.05154  0.60626
V50   V   0.25319  0.10626  0.55154
V51   V   0.25319  0.14374  0.69846
V52   V   0.25319  0.19846  0.64374
V53   V   0.25319  0.55154  0.10626
V54   V   0.25319  0.60626  0.05154
V55   V   0.25319  0.64374  0.19846
V56   V   0.25319  0.69846  0.14374
V57   V   0.30154  0.00319  0.89374
V58   V   0.30154  0.24681  0.35626
V59   V   0.30154  0.35626  0.24681
V60   V   0.30154  0.39374  0.50319
V61   V   0.30154  0.50319  0.39374
V62   V   0.30154  0.74681  0.85626
V63   V   0.30154  0.85626  0.74681
V64   V   0.30154  0.89374  0.00319
V65   V   0.35626  0.00319  0.94846
V66   V   0.35626  0.24681  0.30154
V67   V   0.35626  0.30154  0.24681
V68   V   0.35626  0.44846  0.50319
V69   V   0.35626  0.50319  0.44846
V70   V   0.35626  0.74681  0.80154
V71   V   0.35626  0.80154  0.74681
V72   V   0.35626  0.94846  0.00319
V73   V   0.39374  0.00319  0.80154
V74   V   0.39374  0.24681  0.44846
V75   V   0.39374  0.30154  0.50319
V76   V   0.39374  0.44846  0.24681
V77   V   0.39374  0.50319  0.30154
V78   V   0.39374  0.74681  0.94846
V79   V   0.39374  0.80154  0.00319
V80   V   0.39374  0.94846  0.74681
V81   V   0.44846  0.00319  0.85626
V82   V   0.44846  0.24681  0.39374
V83   V   0.44846  0.35626  0.50319
V84   V   0.44846  0.39374  0.24681
V85   V   0.44846  0.50319  0.35626
V86   V   0.44846  0.74681  0.89374
V87   V   0.44846  0.85626  0.00319
V88   V   0.44846  0.89374  0.74681
V89   V   0.49681  0.05154  0.14374
V90   V   0.49681  0.10626  0.19846
V91   V   0.49681  0.14374  0.05154
V92   V   0.49681  0.19846  0.10626
V93   V   0.49681  0.55154  0.64374
V94   V   0.49681  0.60626  0.69846
V95   V   0.49681  0.64374  0.55154
V96   V   0.49681  0.69846  0.60626
V97   V   0.50319  0.30154  0.39374
V98   V   0.50319  0.35626  0.44846
V99   V   0.50319  0.39374  0.30154
V100  V   0.50319  0.44846  0.35626
V101  V   0.50319  0.80154  0.89374
V102  V   0.50319  0.85626  0.94846
V103  V   0.50319  0.89374  0.80154
V104  V   0.50319  0.94846  0.85626
V105  V   0.55154  0.10626  0.25319
V106  V   0.55154  0.14374  0.99681
V107  V   0.55154  0.25319  0.10626
V108  V   0.55154  0.49681  0.64374
V109  V   0.55154  0.60626  0.75319
V110  V   0.55154  0.64374  0.49681
V111  V   0.55154  0.75319  0.60626
V112  V   0.55154  0.99681  0.14374
V113  V   0.60626  0.05154  0.25319
V114  V   0.60626  0.19846  0.99681
V115  V   0.60626  0.25319  0.05154
V116  V   0.60626  0.49681  0.69846
V117  V   0.60626  0.55154  0.75319
V118  V   0.60626  0.69846  0.49681
V119  V   0.60626  0.75319  0.55154
V120  V   0.60626  0.99681  0.19846
V121  V   0.64374  0.05154  0.99681
V122  V   0.64374  0.19846  0.25319
V123  V   0.64374  0.25319  0.19846
V124  V   0.64374  0.49681  0.55154
V125  V   0.64374  0.55154  0.49681
V126  V   0.64374  0.69846  0.75319
V127  V   0.64374  0.75319  0.69846
V128  V   0.64374  0.99681  0.05154
V129  V   0.69846  0.10626  0.99681
V130  V   0.69846  0.14374  0.25319
V131  V   0.69846  0.25319  0.14374
V132  V   0.69846  0.49681  0.60626
V133  V   0.69846  0.60626  0.49681
V134  V   0.69846  0.64374  0.75319
V135  V   0.69846  0.75319  0.64374
V136  V   0.69846  0.99681  0.10626
V137  V   0.74681  0.30154  0.85626
V138  V   0.74681  0.35626  0.80154
V139  V   0.74681  0.39374  0.94846
V140  V   0.74681  0.44846  0.89374
V141  V   0.74681  0.80154  0.35626
V142  V   0.74681  0.85626  0.30154
V143  V   0.74681  0.89374  0.44846
V144  V   0.74681  0.94846  0.39374
V145  V   0.75319  0.05154  0.10626
V146  V   0.75319  0.10626  0.05154
V147  V   0.75319  0.14374  0.19846
V148  V   0.75319  0.19846  0.14374
V149  V   0.75319  0.55154  0.60626
V150  V   0.75319  0.60626  0.55154
V151  V   0.75319  0.64374  0.69846
V152  V   0.75319  0.69846  0.64374
V153  V   0.80154  0.00319  0.39374
V154  V   0.80154  0.24681  0.85626
V155  V   0.80154  0.35626  0.74681
V156  V   0.80154  0.39374  0.00319
V157  V   0.80154  0.50319  0.89374
V158  V   0.80154  0.74681  0.35626
V159  V   0.80154  0.85626  0.24681
V160  V   0.80154  0.89374  0.50319
V161  V   0.85626  0.00319  0.44846
V162  V   0.85626  0.24681  0.80154
V163  V   0.85626  0.30154  0.74681
V164  V   0.85626  0.44846  0.00319
V165  V   0.85626  0.50319  0.94846
V166  V   0.85626  0.74681  0.30154
V167  V   0.85626  0.80154  0.24681
V168  V   0.85626  0.94846  0.50319
V169  V   0.89374  0.00319  0.30154
V170  V   0.89374  0.24681  0.94846
V171  V   0.89374  0.30154  0.00319
V172  V   0.89374  0.44846  0.74681
V173  V   0.89374  0.50319  0.80154
V174  V   0.89374  0.74681  0.44846
V175  V   0.89374  0.80154  0.50319
V176  V   0.89374  0.94846  0.24681
V177  V   0.94846  0.00319  0.35626
V178  V   0.94846  0.24681  0.89374
V179  V   0.94846  0.35626  0.00319
V180  V   0.94846  0.39374  0.74681
V181  V   0.94846  0.50319  0.85626
V182  V   0.94846  0.74681  0.39374
V183  V   0.94846  0.85626  0.50319
V184  V   0.94846  0.89374  0.24681
V185  V   0.99681  0.05154  0.64374
V186  V   0.99681  0.10626  0.69846
V187  V   0.99681  0.14374  0.55154
V188  V   0.99681  0.19846  0.60626
V189  V   0.99681  0.55154  0.14374
V190  V   0.99681  0.60626  0.19846
V191  V   0.99681  0.64374  0.05154
V192  V   0.99681  0.69846  0.10626
EC1    EC   0.02625  0.08098  0.45923
EC2    EC   0.02625  0.16902  0.79077
EC3    EC   0.02625  0.29077  0.66902
EC4    EC   0.02625  0.45923  0.08098
EC5    EC   0.02625  0.58098  0.95923
EC6    EC   0.02625  0.66902  0.29077
EC7    EC   0.02625  0.79077  0.16902
EC8    EC   0.02625  0.95923  0.58098
EC9    EC   0.04077  0.27625  0.83098
EC10   EC   0.04077  0.33098  0.77625
EC11   EC   0.04077  0.41902  0.97375
EC12   EC   0.04077  0.47375  0.91902
EC13   EC   0.04077  0.77625  0.33098
EC14   EC   0.04077  0.83098  0.27625
EC15   EC   0.04077  0.91902  0.47375
EC16   EC   0.04077  0.97375  0.41902
EC17   EC   0.08098  0.02625  0.45923
EC18   EC   0.08098  0.22375  0.79077
EC19   EC   0.08098  0.29077  0.72375
EC20   EC   0.08098  0.45923  0.02625
EC21   EC   0.08098  0.52625  0.95923
EC22   EC   0.08098  0.72375  0.29077
EC23   EC   0.08098  0.79077  0.22375
EC24   EC   0.08098  0.95923  0.52625
EC25   EC   0.16902  0.02625  0.79077
EC26   EC   0.16902  0.22375  0.45923
EC27   EC   0.16902  0.29077  0.52625
EC28   EC   0.16902  0.45923  0.22375
EC29   EC   0.16902  0.52625  0.29077
EC30   EC   0.16902  0.72375  0.95923
EC31   EC   0.16902  0.79077  0.02625
EC32   EC   0.16902  0.95923  0.72375
EC33   EC   0.20923  0.27625  0.41902
EC34   EC   0.20923  0.33098  0.47375
EC35   EC   0.20923  0.41902  0.27625
EC36   EC   0.20923  0.47375  0.33098
EC37   EC   0.20923  0.77625  0.91902
EC38   EC   0.20923  0.83098  0.97375
EC39   EC   0.20923  0.91902  0.77625
EC40   EC   0.20923  0.97375  0.83098
EC41   EC   0.22375  0.08098  0.79077
EC42   EC   0.22375  0.16902  0.45923
EC43   EC   0.22375  0.29077  0.58098
EC44   EC   0.22375  0.45923  0.16902
EC45   EC   0.22375  0.58098  0.29077
EC46   EC   0.22375  0.66902  0.95923
EC47   EC   0.22375  0.79077  0.08098
EC48   EC   0.22375  0.95923  0.66902
EC49   EC   0.27625  0.04077  0.83098
EC50   EC   0.27625  0.20923  0.41902
EC51   EC   0.27625  0.33098  0.54077
EC52   EC   0.27625  0.41902  0.20923
EC53   EC   0.27625  0.54077  0.33098
EC54   EC   0.27625  0.70923  0.91902
EC55   EC   0.27625  0.83098  0.04077
EC56   EC   0.27625  0.91902  0.70923
EC57   EC   0.29077  0.02625  0.66902
EC58   EC   0.29077  0.08098  0.72375
EC59   EC   0.29077  0.16902  0.52625
EC60   EC   0.29077  0.22375  0.58098
EC61   EC   0.29077  0.52625  0.16902
EC62   EC   0.29077  0.58098  0.22375
EC63   EC   0.29077  0.66902  0.02625
EC64   EC   0.29077  0.72375  0.08098
EC65   EC   0.33098  0.04077  0.77625
EC66   EC   0.33098  0.20923  0.47375
EC67   EC   0.33098  0.27625  0.54077
EC68   EC   0.33098  0.47375  0.20923
EC69   EC   0.33098  0.54077  0.27625
EC70   EC   0.33098  0.70923  0.97375
EC71   EC   0.33098  0.77625  0.04077
EC72   EC   0.33098  0.97375  0.70923
EC73   EC   0.41902  0.04077  0.97375
EC74   EC   0.41902  0.20923  0.27625
EC75   EC   0.41902  0.27625  0.20923
EC76   EC   0.41902  0.47375  0.54077
EC77   EC   0.41902  0.54077  0.47375
EC78   EC   0.41902  0.70923  0.77625
EC79   EC   0.41902  0.77625  0.70923
EC80   EC   0.41902  0.97375  0.04077
EC81   EC   0.45923  0.02625  0.08098
EC82   EC   0.45923  0.08098  0.02625
EC83   EC   0.45923  0.16902  0.22375
EC84   EC   0.45923  0.22375  0.16902
EC85   EC   0.45923  0.52625  0.58098
EC86   EC   0.45923  0.58098  0.52625
EC87   EC   0.45923  0.66902  0.72375
EC88   EC   0.45923  0.72375  0.66902
EC89   EC   0.47375  0.04077  0.91902
EC90   EC   0.47375  0.20923  0.33098
EC91   EC   0.47375  0.33098  0.20923
EC92   EC   0.47375  0.41902  0.54077
EC93   EC   0.47375  0.54077  0.41902
EC94   EC   0.47375  0.70923  0.83098
EC95   EC   0.47375  0.83098  0.70923
EC96   EC   0.47375  0.91902  0.04077
EC97   EC   0.52625  0.08098  0.95923
EC98   EC   0.52625  0.16902  0.29077
EC99   EC   0.52625  0.29077  0.16902
EC100  EC   0.52625  0.45923  0.58098
EC101  EC   0.52625  0.58098  0.45923
EC102  EC   0.52625  0.66902  0.79077
EC103  EC   0.52625  0.79077  0.66902
EC104  EC   0.52625  0.95923  0.08098
EC105  EC   0.54077  0.27625  0.33098
EC106  EC   0.54077  0.33098  0.27625
EC107  EC   0.54077  0.41902  0.47375
EC108  EC   0.54077  0.47375  0.41902
EC109  EC   0.54077  0.77625  0.83098
EC110  EC   0.54077  0.83098  0.77625
EC111  EC   0.54077  0.91902  0.97375
EC112  EC   0.54077  0.97375  0.91902
EC113  EC   0.58098  0.02625  0.95923
EC114  EC   0.58098  0.22375  0.29077
EC115  EC   0.58098  0.29077  0.22375
EC116  EC   0.58098  0.45923  0.52625
EC117  EC   0.58098  0.52625  0.45923
EC118  EC   0.58098  0.72375  0.79077
EC119  EC   0.58098  0.79077  0.72375
EC120  EC   0.58098  0.95923  0.02625
EC121  EC   0.66902  0.02625  0.29077
EC122  EC   0.66902  0.22375  0.95923
EC123  EC   0.66902  0.29077  0.02625
EC124  EC   0.66902  0.45923  0.72375
EC125  EC   0.66902  0.52625  0.79077
EC126  EC   0.66902  0.72375  0.45923
EC127  EC   0.66902  0.79077  0.52625
EC128  EC   0.66902  0.95923  0.22375
EC129  EC   0.70923  0.27625  0.91902
EC130  EC   0.70923  0.33098  0.97375
EC131  EC   0.70923  0.41902  0.77625
EC132  EC   0.70923  0.47375  0.83098
EC133  EC   0.70923  0.77625  0.41902
EC134  EC   0.70923  0.83098  0.47375
EC135  EC   0.70923  0.91902  0.27625
EC136  EC   0.70923  0.97375  0.33098
EC137  EC   0.72375  0.08098  0.29077
EC138  EC   0.72375  0.16902  0.95923
EC139  EC   0.72375  0.29077  0.08098
EC140  EC   0.72375  0.45923  0.66902
EC141  EC   0.72375  0.58098  0.79077
EC142  EC   0.72375  0.66902  0.45923
EC143  EC   0.72375  0.79077  0.58098
EC144  EC   0.72375  0.95923  0.16902
EC145  EC   0.77625  0.04077  0.33098
EC146  EC   0.77625  0.20923  0.91902
EC147  EC   0.77625  0.33098  0.04077
EC148  EC   0.77625  0.41902  0.70923
EC149  EC   0.77625  0.54077  0.83098
EC150  EC   0.77625  0.70923  0.41902
EC151  EC   0.77625  0.83098  0.54077
EC152  EC   0.77625  0.91902  0.20923
EC153  EC   0.79077  0.02625  0.16902
EC154  EC   0.79077  0.08098  0.22375
EC155  EC   0.79077  0.16902  0.02625
EC156  EC   0.79077  0.22375  0.08098
EC157  EC   0.79077  0.52625  0.66902
EC158  EC   0.79077  0.58098  0.72375
EC159  EC   0.79077  0.66902  0.52625
EC160  EC   0.79077  0.72375  0.58098
EC161  EC   0.83098  0.04077  0.27625
EC162  EC   0.83098  0.20923  0.97375
EC163  EC   0.83098  0.27625  0.04077
EC164  EC   0.83098  0.47375  0.70923
EC165  EC   0.83098  0.54077  0.77625
EC166  EC   0.83098  0.70923  0.47375
EC167  EC   0.83098  0.77625  0.54077
EC168  EC   0.83098  0.97375  0.20923
EC169  EC   0.91902  0.04077  0.47375
EC170  EC   0.91902  0.20923  0.77625
EC171  EC   0.91902  0.27625  0.70923
EC172  EC   0.91902  0.47375  0.04077
EC173  EC   0.91902  0.54077  0.97375
EC174  EC   0.91902  0.70923  0.27625
EC175  EC   0.91902  0.77625  0.20923
EC176  EC   0.91902  0.97375  0.54077
EC177  EC   0.95923  0.02625  0.58098
EC178  EC   0.95923  0.08098  0.52625
EC179  EC   0.95923  0.16902  0.72375
EC180  EC   0.95923  0.22375  0.66902
EC181  EC   0.95923  0.52625  0.08098
EC182  EC   0.95923  0.58098  0.02625
EC183  EC   0.95923  0.66902  0.22375
EC184  EC   0.95923  0.72375  0.16902
EC185  EC   0.97375  0.04077  0.41902
EC186  EC   0.97375  0.20923  0.83098
EC187  EC   0.97375  0.33098  0.70923
EC188  EC   0.97375  0.41902  0.04077
EC189  EC   0.97375  0.54077  0.91902
EC190  EC   0.97375  0.70923  0.33098
EC191  EC   0.97375  0.83098  0.20923
EC192  EC   0.97375  0.91902  0.54077
E1    E   0.00000  0.06087  0.43913
E2    E   0.00000  0.06087  0.43913
E3    E   0.00000  0.18913  0.81087
E4    E   0.00000  0.18913  0.81087
E5    E   0.00000  0.31087  0.68913
E6    E   0.00000  0.43913  0.06087
E7    E   0.00000  0.43913  0.06087
E8    E   0.00000  0.56087  0.93913
E9    E   0.00000  0.68913  0.31087
E10   E   0.00000  0.81087  0.18913
E11   E   0.00000  0.81087  0.18913
E12   E   0.00000  0.93913  0.56087
E13   E   0.00319  0.32890  0.92110
E14   E   0.00319  0.42110  0.82890
E15   E   0.00319  0.82890  0.42110
E16   E   0.00319  0.92110  0.32890
E17   E   0.02198  0.28889  0.86236
E18   E   0.02198  0.36236  0.78889
E19   E   0.02198  0.38764  0.96111
E20   E   0.02198  0.46111  0.88764
E21   E   0.02198  0.78889  0.36236
E22   E   0.02198  0.86236  0.28889
E23   E   0.02198  0.88764  0.46111
E24   E   0.02198  0.96111  0.38764
E25   E   0.02417  0.02417  0.64374
E26   E   0.02417  0.10626  0.72583
E27   E   0.02417  0.14374  0.52417
E28   E   0.02417  0.22583  0.60626
E29   E   0.02417  0.52417  0.14374
E30   E   0.02417  0.60626  0.22583
E31   E   0.02417  0.64374  0.02417
E32   E   0.02417  0.72583  0.10626
E33   E   0.02417  0.02417  0.64374
E34   E   0.02417  0.10626  0.72583
E35   E   0.02417  0.14374  0.52417
E36   E   0.02417  0.22583  0.60626
E37   E   0.02417  0.52417  0.14374
E38   E   0.02417  0.60626  0.22583
E39   E   0.02417  0.64374  0.02417
E40   E   0.02417  0.72583  0.10626
E41   E   0.03889  0.11236  0.47802
E42   E   0.03889  0.13764  0.77198
E43   E   0.03889  0.27198  0.63764
E44   E   0.03889  0.47802  0.11236
E45   E   0.03889  0.61236  0.97802
E46   E   0.03889  0.63764  0.27198
E47   E   0.03889  0.77198  0.13764
E48   E   0.03889  0.97802  0.61236
E49   E   0.04077  0.30361  0.80361
E50   E   0.04077  0.44639  0.94639
E51   E   0.04077  0.80361  0.30361
E52   E   0.04077  0.94639  0.44639
E53   E   0.05361  0.05361  0.45923
E54   E   0.05361  0.19639  0.79077
E55   E   0.05361  0.29077  0.69639
E56   E   0.05361  0.45923  0.05361
E57   E   0.05361  0.55361  0.95923
E58   E   0.05361  0.69639  0.29077
E59   E   0.05361  0.79077  0.19639
E60   E   0.05361  0.95923  0.55361
E61   E   0.06087  0.00000  0.43913
E62   E   0.06087  0.25000  0.81087
E63   E   0.06087  0.31087  0.75000
E64   E   0.06087  0.43913  0.00000
E65   E   0.06087  0.50000  0.93913
E66   E   0.06087  0.75000  0.31087
E67   E   0.06087  0.81087  0.25000
E68   E   0.06087  0.93913  0.50000
E69   E   0.06087  0.00000  0.43913
E70   E   0.06087  0.25000  0.81087
E71   E   0.06087  0.31087  0.75000
E72   E   0.06087  0.43913  0.00000
E73   E   0.06087  0.50000  0.93913
E74   E   0.06087  0.75000  0.31087
E75   E   0.06087  0.81087  0.25000
E76   E   0.06087  0.93913  0.50000
E77   E   0.07890  0.07890  0.75319
E78   E   0.07890  0.17110  0.49681
E79   E   0.07890  0.25319  0.57890
E80   E   0.07890  0.49681  0.17110
E81   E   0.07890  0.57890  0.25319
E82   E   0.07890  0.67110  0.99681
E83   E   0.07890  0.75319  0.07890
E84   E   0.07890  0.99681  0.67110
E85   E   0.10626  0.02417  0.72583
E86   E   0.10626  0.02417  0.72583
E87   E   0.10626  0.22583  0.52417
E88   E   0.10626  0.22583  0.52417
E89   E   0.10626  0.52417  0.22583
E90   E   0.10626  0.52417  0.22583
E91   E   0.10626  0.72583  0.02417
E92   E   0.10626  0.72583  0.02417
E93   E   0.11236  0.03889  0.47802
E94   E   0.11236  0.21111  0.77198
E95   E   0.11236  0.27198  0.71111
E96   E   0.11236  0.47802  0.03889
E97   E   0.11236  0.53889  0.97802
E98   E   0.11236  0.71111  0.27198
E99   E   0.11236  0.77198  0.21111
E100  E   0.11236  0.97802  0.53889
E101  E   0.13764  0.03889  0.77198
E102  E   0.13764  0.21111  0.47802
E103  E   0.13764  0.27198  0.53889
E104  E   0.13764  0.47802  0.21111
E105  E   0.13764  0.53889  0.27198
E106  E   0.13764  0.71111  0.97802
E107  E   0.13764  0.77198  0.03889
E108  E   0.13764  0.97802  0.71111
E109  E   0.14374  0.02417  0.52417
E110  E   0.14374  0.02417  0.52417
E111  E   0.14374  0.22583  0.72583
E112  E   0.14374  0.22583  0.72583
E113  E   0.14374  0.52417  0.02417
E114  E   0.14374  0.52417  0.02417
E115  E   0.14374  0.72583  0.22583
E116  E   0.14374  0.72583  0.22583
E117  E   0.17110  0.07890  0.49681
E118  E   0.17110  0.17110  0.75319
E119  E   0.17110  0.25319  0.67110
E120  E   0.17110  0.49681  0.07890
E121  E   0.17110  0.57890  0.99681
E122  E   0.17110  0.67110  0.25319
E123  E   0.17110  0.75319  0.17110
E124  E   0.17110  0.99681  0.57890
E125  E   0.18913  0.00000  0.81087
E126  E   0.18913  0.25000  0.43913
E127  E   0.18913  0.31087  0.50000
E128  E   0.18913  0.43913  0.25000
E129  E   0.18913  0.50000  0.31087
E130  E   0.18913  0.75000  0.93913
E131  E   0.18913  0.81087  0.00000
E132  E   0.18913  0.93913  0.75000
E133  E   0.18913  0.00000  0.81087
E134  E   0.18913  0.25000  0.43913
E135  E   0.18913  0.31087  0.50000
E136  E   0.18913  0.43913  0.25000
E137  E   0.18913  0.50000  0.31087
E138  E   0.18913  0.75000  0.93913
E139  E   0.18913  0.81087  0.00000
E140  E   0.18913  0.93913  0.75000
E141  E   0.19639  0.05361  0.79077
E142  E   0.19639  0.19639  0.45923
E143  E   0.19639  0.29077  0.55361
E144  E   0.19639  0.45923  0.19639
E145  E   0.19639  0.55361  0.29077
E146  E   0.19639  0.69639  0.95923
E147  E   0.19639  0.79077  0.05361
E148  E   0.19639  0.95923  0.69639
E149  E   0.20923  0.30361  0.44639
E150  E   0.20923  0.44639  0.30361
E151  E   0.20923  0.80361  0.94639
E152  E   0.20923  0.94639  0.80361
E153  E   0.21111  0.11236  0.77198
E154  E   0.21111  0.13764  0.47802
E155  E   0.21111  0.27198  0.61236
E156  E   0.21111  0.47802  0.13764
E157  E   0.21111  0.61236  0.27198
E158  E   0.21111  0.63764  0.97802
E159  E   0.21111  0.77198  0.11236
E160  E   0.21111  0.97802  0.63764
E161  E   0.22583  0.02417  0.60626
E162  E   0.22583  0.10626  0.52417
E163  E   0.22583  0.14374  0.72583
E164  E   0.22583  0.22583  0.64374
E165  E   0.22583  0.52417  0.10626
E166  E   0.22583  0.60626  0.02417
E167  E   0.22583  0.64374  0.22583
E168  E   0.22583  0.72583  0.14374
E169  E   0.22583  0.02417  0.60626
E170  E   0.22583  0.10626  0.52417
E171  E   0.22583  0.14374  0.72583
E172  E   0.22583  0.22583  0.64374
E173  E   0.22583  0.52417  0.10626
E174  E   0.22583  0.60626  0.02417
E175  E   0.22583  0.64374  0.22583
E176  E   0.22583  0.72583  0.14374
E177  E   0.22802  0.28889  0.38764
E178  E   0.22802  0.36236  0.46111
E179  E   0.22802  0.38764  0.28889
E180  E   0.22802  0.46111  0.36236
E181  E   0.22802  0.78889  0.88764
E182  E   0.22802  0.86236  0.96111
E183  E   0.22802  0.88764  0.78889
E184  E   0.22802  0.96111  0.86236
E185  E   0.24681  0.32890  0.32890
E186  E   0.24681  0.42110  0.42110
E187  E   0.24681  0.82890  0.82890
E188  E   0.24681  0.92110  0.92110
E189  E   0.25000  0.06087  0.81087
E190  E   0.25000  0.06087  0.81087
E191  E   0.25000  0.18913  0.43913
E192  E   0.25000  0.18913  0.43913
E193  E   0.25000  0.31087  0.56087
E194  E   0.25000  0.43913  0.18913
E195  E   0.25000  0.43913  0.18913
E196  E   0.25000  0.56087  0.31087
E197  E   0.25000  0.68913  0.93913
E198  E   0.25000  0.81087  0.06087
E199  E   0.25000  0.81087  0.06087
E200  E   0.25000  0.93913  0.68913
E201  E   0.25319  0.07890  0.57890
E202  E   0.25319  0.17110  0.67110
E203  E   0.25319  0.57890  0.07890
E204  E   0.25319  0.67110  0.17110
E205  E   0.27198  0.03889  0.63764
E206  E   0.27198  0.11236  0.71111
E207  E   0.27198  0.13764  0.53889
E208  E   0.27198  0.21111  0.61236
E209  E   0.27198  0.53889  0.13764
E210  E   0.27198  0.61236  0.21111
E211  E   0.27198  0.63764  0.03889
E212  E   0.27198  0.71111  0.11236
E213  E   0.27417  0.27417  0.35626
E214  E   0.27417  0.35626  0.27417
E215  E   0.27417  0.39374  0.47583
E216  E   0.27417  0.47583  0.39374
E217  E   0.27417  0.77417  0.85626
E218  E   0.27417  0.85626  0.77417
E219  E   0.27417  0.89374  0.97583
E220  E   0.27417  0.97583  0.89374
E221  E   0.28889  0.02198  0.86236
E222  E   0.28889  0.22802  0.38764
E223  E   0.28889  0.36236  0.52198
E224  E   0.28889  0.38764  0.22802
E225  E   0.28889  0.52198  0.36236
E226  E   0.28889  0.72802  0.88764
E227  E   0.28889  0.86236  0.02198
E228  E   0.28889  0.88764  0.72802
E229  E   0.29077  0.05361  0.69639
E230  E   0.29077  0.19639  0.55361
E231  E   0.29077  0.55361  0.19639
E232  E   0.29077  0.69639  0.05361
E233  E   0.30361  0.04077  0.80361
E234  E   0.30361  0.20923  0.44639
E235  E   0.30361  0.30361  0.54077
E236  E   0.30361  0.44639  0.20923
E237  E   0.30361  0.54077  0.30361
E238  E   0.30361  0.70923  0.94639
E239  E   0.30361  0.80361  0.04077
E240  E   0.30361  0.94639  0.70923
E241  E   0.31087  0.00000  0.68913
E242  E   0.31087  0.06087  0.75000
E243  E   0.31087  0.06087  0.75000
E244  E   0.31087  0.18913  0.50000
E245  E   0.31087  0.18913  0.50000
E246  E   0.31087  0.25000  0.56087
E247  E   0.31087  0.50000  0.18913
E248  E   0.31087  0.50000  0.18913
E249  E   0.31087  0.56087  0.25000
E250  E   0.31087  0.68913  0.00000
E251  E   0.31087  0.75000  0.06087
E252  E   0.31087  0.75000  0.06087
E253  E   0.32890  0.00319  0.92110
E254  E   0.32890  0.24681  0.32890
E255  E   0.32890  0.32890  0.24681
E256  E   0.32890  0.42110  0.50319
E257  E   0.32890  0.50319  0.42110
E258  E   0.32890  0.74681  0.82890
E259  E   0.32890  0.82890  0.74681
E260  E   0.32890  0.92110  0.00319
E261  E   0.35626  0.27417  0.27417
E262  E   0.35626  0.47583  0.47583
E263  E   0.35626  0.77417  0.77417
E264  E   0.35626  0.97583  0.97583
E265  E   0.36236  0.02198  0.78889
E266  E   0.36236  0.22802  0.46111
E267  E   0.36236  0.28889  0.52198
E268  E   0.36236  0.46111  0.22802
E269  E   0.36236  0.52198  0.28889
E270  E   0.36236  0.72802  0.96111
E271  E   0.36236  0.78889  0.02198
E272  E   0.36236  0.96111  0.72802
E273  E   0.38764  0.02198  0.96111
E274  E   0.38764  0.22802  0.28889
E275  E   0.38764  0.28889  0.22802
E276  E   0.38764  0.46111  0.52198
E277  E   0.38764  0.52198  0.46111
E278  E   0.38764  0.72802  0.78889
E279  E   0.38764  0.78889  0.72802
E280  E   0.38764  0.96111  0.02198
E281  E   0.39374  0.27417  0.47583
E282  E   0.39374  0.47583  0.27417
E283  E   0.39374  0.77417  0.97583
E284  E   0.39374  0.97583  0.77417
E285  E   0.42110  0.00319  0.82890
E286  E   0.42110  0.24681  0.42110
E287  E   0.42110  0.32890  0.50319
E288  E   0.42110  0.42110  0.24681
E289  E   0.42110  0.50319  0.32890
E290  E   0.42110  0.74681  0.92110
E291  E   0.42110  0.82890  0.00319
E292  E   0.42110  0.92110  0.74681
E293  E   0.43913  0.00000  0.06087
E294  E   0.43913  0.00000  0.06087
E295  E   0.43913  0.06087  0.00000
E296  E   0.43913  0.06087  0.00000
E297  E   0.43913  0.18913  0.25000
E298  E   0.43913  0.18913  0.25000
E299  E   0.43913  0.25000  0.18913
E300  E   0.43913  0.25000  0.18913
E301  E   0.43913  0.50000  0.56087
E302  E   0.43913  0.56087  0.50000
E303  E   0.43913  0.68913  0.75000
E304  E   0.43913  0.75000  0.68913
E305  E   0.44639  0.04077  0.94639
E306  E   0.44639  0.20923  0.30361
E307  E   0.44639  0.30361  0.20923
E308  E   0.44639  0.44639  0.54077
E309  E   0.44639  0.54077  0.44639
E310  E   0.44639  0.70923  0.80361
E311  E   0.44639  0.80361  0.70923
E312  E   0.44639  0.94639  0.04077
E313  E   0.45923  0.05361  0.05361
E314  E   0.45923  0.19639  0.19639
E315  E   0.45923  0.55361  0.55361
E316  E   0.45923  0.69639  0.69639
E317  E   0.46111  0.02198  0.88764
E318  E   0.46111  0.22802  0.36236
E319  E   0.46111  0.36236  0.22802
E320  E   0.46111  0.38764  0.52198
E321  E   0.46111  0.52198  0.38764
E322  E   0.46111  0.72802  0.86236
E323  E   0.46111  0.86236  0.72802
E324  E   0.46111  0.88764  0.02198
E325  E   0.47583  0.27417  0.39374
E326  E   0.47583  0.35626  0.47583
E327  E   0.47583  0.39374  0.27417
E328  E   0.47583  0.47583  0.35626
E329  E   0.47583  0.77417  0.89374
E330  E   0.47583  0.85626  0.97583
E331  E   0.47583  0.89374  0.77417
E332  E   0.47583  0.97583  0.85626
E333  E   0.47802  0.03889  0.11236
E334  E   0.47802  0.11236  0.03889
E335  E   0.47802  0.13764  0.21111
E336  E   0.47802  0.21111  0.13764
E337  E   0.47802  0.53889  0.61236
E338  E   0.47802  0.61236  0.53889
E339  E   0.47802  0.63764  0.71111
E340  E   0.47802  0.71111  0.63764
E341  E   0.49681  0.07890  0.17110
E342  E   0.49681  0.17110  0.07890
E343  E   0.49681  0.57890  0.67110
E344  E   0.49681  0.67110  0.57890
E345  E   0.50000  0.06087  0.93913
E346  E   0.50000  0.06087  0.93913
E347  E   0.50000  0.18913  0.31087
E348  E   0.50000  0.18913  0.31087
E349  E   0.50000  0.31087  0.18913
E350  E   0.50000  0.31087  0.18913
E351  E   0.50000  0.43913  0.56087
E352  E   0.50000  0.56087  0.43913
E353  E   0.50000  0.68913  0.81087
E354  E   0.50000  0.81087  0.68913
E355  E   0.50000  0.93913  0.06087
E356  E   0.50000  0.93913  0.06087
E357  E   0.50319  0.32890  0.42110
E358  E   0.50319  0.42110  0.32890
E359  E   0.50319  0.82890  0.92110
E360  E   0.50319  0.92110  0.82890
E361  E   0.52198  0.28889  0.36236
E362  E   0.52198  0.36236  0.28889
E363  E   0.52198  0.38764  0.46111
E364  E   0.52198  0.46111  0.38764
E365  E   0.52198  0.78889  0.86236
E366  E   0.52198  0.86236  0.78889
E367  E   0.52198  0.88764  0.96111
E368  E   0.52198  0.96111  0.88764
E369  E   0.52417  0.02417  0.14374
E370  E   0.52417  0.02417  0.14374
E371  E   0.52417  0.10626  0.22583
E372  E   0.52417  0.10626  0.22583
E373  E   0.52417  0.14374  0.02417
E374  E   0.52417  0.14374  0.02417
E375  E   0.52417  0.22583  0.10626
E376  E   0.52417  0.22583  0.10626
E377  E   0.52417  0.52417  0.64374
E378  E   0.52417  0.60626  0.72583
E379  E   0.52417  0.64374  0.52417
E380  E   0.52417  0.72583  0.60626
E381  E   0.53889  0.11236  0.97802
E382  E   0.53889  0.13764  0.27198
E383  E   0.53889  0.27198  0.13764
E384  E   0.53889  0.47802  0.61236
E385  E   0.53889  0.61236  0.47802
E386  E   0.53889  0.63764  0.77198
E387  E   0.53889  0.77198  0.63764
E388  E   0.53889  0.97802  0.11236
E389  E   0.54077  0.30361  0.30361
E390  E   0.54077  0.44639  0.44639
E391  E   0.54077  0.80361  0.80361
E392  E   0.54077  0.94639  0.94639
E393  E   0.55361  0.05361  0.95923
E394  E   0.55361  0.19639  0.29077
E395  E   0.55361  0.29077  0.19639
E396  E   0.55361  0.45923  0.55361
E397  E   0.55361  0.55361  0.45923
E398  E   0.55361  0.69639  0.79077
E399  E   0.55361  0.79077  0.69639
E400  E   0.55361  0.95923  0.05361
E401  E   0.56087  0.00000  0.93913
E402  E   0.56087  0.25000  0.31087
E403  E   0.56087  0.31087  0.25000
E404  E   0.56087  0.43913  0.50000
E405  E   0.56087  0.50000  0.43913
E406  E   0.56087  0.75000  0.81087
E407  E   0.56087  0.81087  0.75000
E408  E   0.56087  0.93913  0.00000
E409  E   0.57890  0.07890  0.25319
E410  E   0.57890  0.17110  0.99681
E411  E   0.57890  0.25319  0.07890
E412  E   0.57890  0.49681  0.67110
E413  E   0.57890  0.57890  0.75319
E414  E   0.57890  0.67110  0.49681
E415  E   0.57890  0.75319  0.57890
E416  E   0.57890  0.99681  0.17110
E417  E   0.60626  0.02417  0.22583
E418  E   0.60626  0.02417  0.22583
E419  E   0.60626  0.22583  0.02417
E420  E   0.60626  0.22583  0.02417
E421  E   0.60626  0.52417  0.72583
E422  E   0.60626  0.72583  0.52417
E423  E   0.61236  0.03889  0.97802
E424  E   0.61236  0.21111  0.27198
E425  E   0.61236  0.27198  0.21111
E426  E   0.61236  0.47802  0.53889
E427  E   0.61236  0.53889  0.47802
E428  E   0.61236  0.71111  0.77198
E429  E   0.61236  0.77198  0.71111
E430  E   0.61236  0.97802  0.03889
E431  E   0.63764  0.03889  0.27198
E432  E   0.63764  0.21111  0.97802
E433  E   0.63764  0.27198  0.03889
E434  E   0.63764  0.47802  0.71111
E435  E   0.63764  0.53889  0.77198
E436  E   0.63764  0.71111  0.47802
E437  E   0.63764  0.77198  0.53889
E438  E   0.63764  0.97802  0.21111
E439  E   0.64374  0.02417  0.02417
E440  E   0.64374  0.02417  0.02417
E441  E   0.64374  0.22583  0.22583
E442  E   0.64374  0.22583  0.22583
E443  E   0.64374  0.52417  0.52417
E444  E   0.64374  0.72583  0.72583
E445  E   0.67110  0.07890  0.99681
E446  E   0.67110  0.17110  0.25319
E447  E   0.67110  0.25319  0.17110
E448  E   0.67110  0.49681  0.57890
E449  E   0.67110  0.57890  0.49681
E450  E   0.67110  0.67110  0.75319
E451  E   0.67110  0.75319  0.67110
E452  E   0.67110  0.99681  0.07890
E453  E   0.68913  0.00000  0.31087
E454  E   0.68913  0.25000  0.93913
E455  E   0.68913  0.31087  0.00000
E456  E   0.68913  0.43913  0.75000
E457  E   0.68913  0.50000  0.81087
E458  E   0.68913  0.75000  0.43913
E459  E   0.68913  0.81087  0.50000
E460  E   0.68913  0.93913  0.25000
E461  E   0.69639  0.05361  0.29077
E462  E   0.69639  0.19639  0.95923
E463  E   0.69639  0.29077  0.05361
E464  E   0.69639  0.45923  0.69639
E465  E   0.69639  0.55361  0.79077
E466  E   0.69639  0.69639  0.45923
E467  E   0.69639  0.79077  0.55361
E468  E   0.69639  0.95923  0.19639
E469  E   0.70923  0.30361  0.94639
E470  E   0.70923  0.44639  0.80361
E471  E   0.70923  0.80361  0.44639
E472  E   0.70923  0.94639  0.30361
E473  E   0.71111  0.11236  0.27198
E474  E   0.71111  0.13764  0.97802
E475  E   0.71111  0.27198  0.11236
E476  E   0.71111  0.47802  0.63764
E477  E   0.71111  0.61236  0.77198
E478  E   0.71111  0.63764  0.47802
E479  E   0.71111  0.77198  0.61236
E480  E   0.71111  0.97802  0.13764
E481  E   0.72583  0.02417  0.10626
E482  E   0.72583  0.02417  0.10626
E483  E   0.72583  0.10626  0.02417
E484  E   0.72583  0.10626  0.02417
E485  E   0.72583  0.14374  0.22583
E486  E   0.72583  0.14374  0.22583
E487  E   0.72583  0.22583  0.14374
E488  E   0.72583  0.22583  0.14374
E489  E   0.72583  0.52417  0.60626
E490  E   0.72583  0.60626  0.52417
E491  E   0.72583  0.64374  0.72583
E492  E   0.72583  0.72583  0.64374
E493  E   0.72802  0.28889  0.88764
E494  E   0.72802  0.36236  0.96111
E495  E   0.72802  0.38764  0.78889
E496  E   0.72802  0.46111  0.86236
E497  E   0.72802  0.78889  0.38764
E498  E   0.72802  0.86236  0.46111
E499  E   0.72802  0.88764  0.28889
E500  E   0.72802  0.96111  0.36236
E501  E   0.74681  0.32890  0.82890
E502  E   0.74681  0.42110  0.92110
E503  E   0.74681  0.82890  0.32890
E504  E   0.74681  0.92110  0.42110
E505  E   0.75000  0.06087  0.31087
E506  E   0.75000  0.06087  0.31087
E507  E   0.75000  0.18913  0.93913
E508  E   0.75000  0.18913  0.93913
E509  E   0.75000  0.31087  0.06087
E510  E   0.75000  0.31087  0.06087
E511  E   0.75000  0.43913  0.68913
E512  E   0.75000  0.56087  0.81087
E513  E   0.75000  0.68913  0.43913
E514  E   0.75000  0.81087  0.56087
E515  E   0.75000  0.93913  0.18913
E516  E   0.75000  0.93913  0.18913
E517  E   0.75319  0.07890  0.07890
E518  E   0.75319  0.17110  0.17110
E519  E   0.75319  0.57890  0.57890
E520  E   0.75319  0.67110  0.67110
E521  E   0.77198  0.03889  0.13764
E522  E   0.77198  0.11236  0.21111
E523  E   0.77198  0.13764  0.03889
E524  E   0.77198  0.21111  0.11236
E525  E   0.77198  0.53889  0.63764
E526  E   0.77198  0.61236  0.71111
E527  E   0.77198  0.63764  0.53889
E528  E   0.77198  0.71111  0.61236
E529  E   0.77417  0.27417  0.85626
E530  E   0.77417  0.35626  0.77417
E531  E   0.77417  0.39374  0.97583
E532  E   0.77417  0.47583  0.89374
E533  E   0.77417  0.77417  0.35626
E534  E   0.77417  0.85626  0.27417
E535  E   0.77417  0.89374  0.47583
E536  E   0.77417  0.97583  0.39374
E537  E   0.78889  0.02198  0.36236
E538  E   0.78889  0.22802  0.88764
E539  E   0.78889  0.36236  0.02198
E540  E   0.78889  0.38764  0.72802
E541  E   0.78889  0.52198  0.86236
E542  E   0.78889  0.72802  0.38764
E543  E   0.78889  0.86236  0.52198
E544  E   0.78889  0.88764  0.22802
E545  E   0.79077  0.05361  0.19639
E546  E   0.79077  0.19639  0.05361
E547  E   0.79077  0.55361  0.69639
E548  E   0.79077  0.69639  0.55361
E549  E   0.80361  0.04077  0.30361
E550  E   0.80361  0.20923  0.94639
E551  E   0.80361  0.30361  0.04077
E552  E   0.80361  0.44639  0.70923
E553  E   0.80361  0.54077  0.80361
E554  E   0.80361  0.70923  0.44639
E555  E   0.80361  0.80361  0.54077
E556  E   0.80361  0.94639  0.20923
E557  E   0.81087  0.00000  0.18913
E558  E   0.81087  0.00000  0.18913
E559  E   0.81087  0.06087  0.25000
E560  E   0.81087  0.06087  0.25000
E561  E   0.81087  0.18913  0.00000
E562  E   0.81087  0.18913  0.00000
E563  E   0.81087  0.25000  0.06087
E564  E   0.81087  0.25000  0.06087
E565  E   0.81087  0.50000  0.68913
E566  E   0.81087  0.56087  0.75000
E567  E   0.81087  0.68913  0.50000
E568  E   0.81087  0.75000  0.56087
E569  E   0.82890  0.00319  0.42110
E570  E   0.82890  0.24681  0.82890
E571  E   0.82890  0.32890  0.74681
E572  E   0.82890  0.42110  0.00319
E573  E   0.82890  0.50319  0.92110
E574  E   0.82890  0.74681  0.32890
E575  E   0.82890  0.82890  0.24681
E576  E   0.82890  0.92110  0.50319
E577  E   0.85626  0.27417  0.77417
E578  E   0.85626  0.47583  0.97583
E579  E   0.85626  0.77417  0.27417
E580  E   0.85626  0.97583  0.47583
E581  E   0.86236  0.02198  0.28889
E582  E   0.86236  0.22802  0.96111
E583  E   0.86236  0.28889  0.02198
E584  E   0.86236  0.46111  0.72802
E585  E   0.86236  0.52198  0.78889
E586  E   0.86236  0.72802  0.46111
E587  E   0.86236  0.78889  0.52198
E588  E   0.86236  0.96111  0.22802
E589  E   0.88764  0.02198  0.46111
E590  E   0.88764  0.22802  0.78889
E591  E   0.88764  0.28889  0.72802
E592  E   0.88764  0.46111  0.02198
E593  E   0.88764  0.52198  0.96111
E594  E   0.88764  0.72802  0.28889
E595  E   0.88764  0.78889  0.22802
E596  E   0.88764  0.96111  0.52198
E597  E   0.89374  0.27417  0.97583
E598  E   0.89374  0.47583  0.77417
E599  E   0.89374  0.77417  0.47583
E600  E   0.89374  0.97583  0.27417
E601  E   0.92110  0.00319  0.32890
E602  E   0.92110  0.24681  0.92110
E603  E   0.92110  0.32890  0.00319
E604  E   0.92110  0.42110  0.74681
E605  E   0.92110  0.50319  0.82890
E606  E   0.92110  0.74681  0.42110
E607  E   0.92110  0.82890  0.50319
E608  E   0.92110  0.92110  0.24681
E609  E   0.93913  0.00000  0.56087
E610  E   0.93913  0.06087  0.50000
E611  E   0.93913  0.06087  0.50000
E612  E   0.93913  0.18913  0.75000
E613  E   0.93913  0.18913  0.75000
E614  E   0.93913  0.25000  0.68913
E615  E   0.93913  0.50000  0.06087
E616  E   0.93913  0.50000  0.06087
E617  E   0.93913  0.56087  0.00000
E618  E   0.93913  0.68913  0.25000
E619  E   0.93913  0.75000  0.18913
E620  E   0.93913  0.75000  0.18913
E621  E   0.94639  0.04077  0.44639
E622  E   0.94639  0.20923  0.80361
E623  E   0.94639  0.30361  0.70923
E624  E   0.94639  0.44639  0.04077
E625  E   0.94639  0.54077  0.94639
E626  E   0.94639  0.70923  0.30361
E627  E   0.94639  0.80361  0.20923
E628  E   0.94639  0.94639  0.54077
E629  E   0.95923  0.05361  0.55361
E630  E   0.95923  0.19639  0.69639
E631  E   0.95923  0.55361  0.05361
E632  E   0.95923  0.69639  0.19639
E633  E   0.96111  0.02198  0.38764
E634  E   0.96111  0.22802  0.86236
E635  E   0.96111  0.36236  0.72802
E636  E   0.96111  0.38764  0.02198
E637  E   0.96111  0.52198  0.88764
E638  E   0.96111  0.72802  0.36236
E639  E   0.96111  0.86236  0.22802
E640  E   0.96111  0.88764  0.52198
E641  E   0.97583  0.27417  0.89374
E642  E   0.97583  0.35626  0.97583
E643  E   0.97583  0.39374  0.77417
E644  E   0.97583  0.47583  0.85626
E645  E   0.97583  0.77417  0.39374
E646  E   0.97583  0.85626  0.47583
E647  E   0.97583  0.89374  0.27417
E648  E   0.97583  0.97583  0.35626
E649  E   0.97802  0.03889  0.61236
E650  E   0.97802  0.11236  0.53889
E651  E   0.97802  0.13764  0.71111
E652  E   0.97802  0.21111  0.63764
E653  E   0.97802  0.53889  0.11236
E654  E   0.97802  0.61236  0.03889
E655  E   0.97802  0.63764  0.21111
E656  E   0.97802  0.71111  0.13764
E657  E   0.99681  0.07890  0.67110
E658  E   0.99681  0.17110  0.57890
E659  E   0.99681  0.57890  0.17110
E660  E   0.99681  0.67110  0.07890
loop_
