data_hef_Im-3m  hall_number: 529, V_con: 3, EC_con: 3
_audit_creation_date              2025-03-05
_audit_creation_method            'MOFbuilder_1.0'
_symmetry_space_group_name_H-M    'P1'
_symmetry_Int_Tables_number       1
_symmetry_cell_setting            triclinic
loop_
_symmetry_equiv_pos_as_xyz
  x,y,z
_cell_length_a                    89.1182
_cell_length_b                    89.1182
_cell_length_c                    89.1182
_cell_angle_alpha                 90.0
_cell_angle_beta                  90.0
_cell_angle_gamma                 90.0
loop_
_atom_site_label
_atom_site_type_symbol
_atom_site_fract_x
_atom_site_fract_y
_atom_site_fract_z
V1    V   0.05611  0.13545  0.30823
V2    V   0.05611  0.13545  0.69177
V3    V   0.05611  0.30823  0.13545
V4    V   0.05611  0.30823  0.86455
V5    V   0.05611  0.69177  0.13545
V6    V   0.05611  0.69177  0.86455
V7    V   0.05611  0.86455  0.30823
V8    V   0.05611  0.86455  0.69177
V9    V   0.13545  0.05611  0.30823
V10   V   0.13545  0.05611  0.69177
V11   V   0.13545  0.30823  0.05611
V12   V   0.13545  0.30823  0.94389
V13   V   0.13545  0.69177  0.05611
V14   V   0.13545  0.69177  0.94389
V15   V   0.13545  0.94389  0.30823
V16   V   0.13545  0.94389  0.69177
V17   V   0.19177  0.36455  0.44389
V18   V   0.19177  0.36455  0.55611
V19   V   0.19177  0.44389  0.36455
V20   V   0.19177  0.44389  0.63545
V21   V   0.19177  0.55611  0.36455
V22   V   0.19177  0.55611  0.63545
V23   V   0.19177  0.63545  0.44389
V24   V   0.19177  0.63545  0.55611
V25   V   0.30823  0.05611  0.13545
V26   V   0.30823  0.05611  0.86455
V27   V   0.30823  0.13545  0.05611
V28   V   0.30823  0.13545  0.94389
V29   V   0.30823  0.86455  0.05611
V30   V   0.30823  0.86455  0.94389
V31   V   0.30823  0.94389  0.13545
V32   V   0.30823  0.94389  0.86455
V33   V   0.36455  0.19177  0.44389
V34   V   0.36455  0.19177  0.55611
V35   V   0.36455  0.44389  0.19177
V36   V   0.36455  0.44389  0.80823
V37   V   0.36455  0.55611  0.19177
V38   V   0.36455  0.55611  0.80823
V39   V   0.36455  0.80823  0.44389
V40   V   0.36455  0.80823  0.55611
V41   V   0.44389  0.19177  0.36455
V42   V   0.44389  0.19177  0.63545
V43   V   0.44389  0.36455  0.19177
V44   V   0.44389  0.36455  0.80823
V45   V   0.44389  0.63545  0.19177
V46   V   0.44389  0.63545  0.80823
V47   V   0.44389  0.80823  0.36455
V48   V   0.44389  0.80823  0.63545
V49   V   0.55611  0.19177  0.36455
V50   V   0.55611  0.19177  0.63545
V51   V   0.55611  0.36455  0.19177
V52   V   0.55611  0.36455  0.80823
V53   V   0.55611  0.63545  0.19177
V54   V   0.55611  0.63545  0.80823
V55   V   0.55611  0.80823  0.36455
V56   V   0.55611  0.80823  0.63545
V57   V   0.63545  0.19177  0.44389
V58   V   0.63545  0.19177  0.55611
V59   V   0.63545  0.44389  0.19177
V60   V   0.63545  0.44389  0.80823
V61   V   0.63545  0.55611  0.19177
V62   V   0.63545  0.55611  0.80823
V63   V   0.63545  0.80823  0.44389
V64   V   0.63545  0.80823  0.55611
V65   V   0.69177  0.05611  0.13545
V66   V   0.69177  0.05611  0.86455
V67   V   0.69177  0.13545  0.05611
V68   V   0.69177  0.13545  0.94389
V69   V   0.69177  0.86455  0.05611
V70   V   0.69177  0.86455  0.94389
V71   V   0.69177  0.94389  0.13545
V72   V   0.69177  0.94389  0.86455
V73   V   0.80823  0.36455  0.44389
V74   V   0.80823  0.36455  0.55611
V75   V   0.80823  0.44389  0.36455
V76   V   0.80823  0.44389  0.63545
V77   V   0.80823  0.55611  0.36455
V78   V   0.80823  0.55611  0.63545
V79   V   0.80823  0.63545  0.44389
V80   V   0.80823  0.63545  0.55611
V81   V   0.86455  0.05611  0.30823
V82   V   0.86455  0.05611  0.69177
V83   V   0.86455  0.30823  0.05611
V84   V   0.86455  0.30823  0.94389
V85   V   0.86455  0.69177  0.05611
V86   V   0.86455  0.69177  0.94389
V87   V   0.86455  0.94389  0.30823
V88   V   0.86455  0.94389  0.69177
V89   V   0.94389  0.13545  0.30823
V90   V   0.94389  0.13545  0.69177
V91   V   0.94389  0.30823  0.13545
V92   V   0.94389  0.30823  0.86455
V93   V   0.94389  0.69177  0.13545
V94   V   0.94389  0.69177  0.86455
V95   V   0.94389  0.86455  0.30823
V96   V   0.94389  0.86455  0.69177
EC1    EC   0.11653  0.22999  0.30934
EC2    EC   0.11653  0.22999  0.69066
EC3    EC   0.11653  0.30934  0.22999
EC4    EC   0.11653  0.30934  0.77001
EC5    EC   0.11653  0.69066  0.22999
EC6    EC   0.11653  0.69066  0.77001
EC7    EC   0.11653  0.77001  0.30934
EC8    EC   0.11653  0.77001  0.69066
EC9    EC   0.19066  0.27001  0.38347
EC10   EC   0.19066  0.27001  0.61653
EC11   EC   0.19066  0.38347  0.27001
EC12   EC   0.19066  0.38347  0.72999
EC13   EC   0.19066  0.61653  0.27001
EC14   EC   0.19066  0.61653  0.72999
EC15   EC   0.19066  0.72999  0.38347
EC16   EC   0.19066  0.72999  0.61653
EC17   EC   0.22999  0.11653  0.30934
EC18   EC   0.22999  0.11653  0.69066
EC19   EC   0.22999  0.30934  0.11653
EC20   EC   0.22999  0.30934  0.88347
EC21   EC   0.22999  0.69066  0.11653
EC22   EC   0.22999  0.69066  0.88347
EC23   EC   0.22999  0.88347  0.30934
EC24   EC   0.22999  0.88347  0.69066
EC25   EC   0.27001  0.19066  0.38347
EC26   EC   0.27001  0.19066  0.61653
EC27   EC   0.27001  0.38347  0.19066
EC28   EC   0.27001  0.38347  0.80934
EC29   EC   0.27001  0.61653  0.19066
EC30   EC   0.27001  0.61653  0.80934
EC31   EC   0.27001  0.80934  0.38347
EC32   EC   0.27001  0.80934  0.61653
EC33   EC   0.30934  0.11653  0.22999
EC34   EC   0.30934  0.11653  0.77001
EC35   EC   0.30934  0.22999  0.11653
EC36   EC   0.30934  0.22999  0.88347
EC37   EC   0.30934  0.77001  0.11653
EC38   EC   0.30934  0.77001  0.88347
EC39   EC   0.30934  0.88347  0.22999
EC40   EC   0.30934  0.88347  0.77001
EC41   EC   0.38347  0.19066  0.27001
EC42   EC   0.38347  0.19066  0.72999
EC43   EC   0.38347  0.27001  0.19066
EC44   EC   0.38347  0.27001  0.80934
EC45   EC   0.38347  0.72999  0.19066
EC46   EC   0.38347  0.72999  0.80934
EC47   EC   0.38347  0.80934  0.27001
EC48   EC   0.38347  0.80934  0.72999
EC49   EC   0.61653  0.19066  0.27001
EC50   EC   0.61653  0.19066  0.72999
EC51   EC   0.61653  0.27001  0.19066
EC52   EC   0.61653  0.27001  0.80934
EC53   EC   0.61653  0.72999  0.19066
EC54   EC   0.61653  0.72999  0.80934
EC55   EC   0.61653  0.80934  0.27001
EC56   EC   0.61653  0.80934  0.72999
EC57   EC   0.69066  0.11653  0.22999
EC58   EC   0.69066  0.11653  0.77001
EC59   EC   0.69066  0.22999  0.11653
EC60   EC   0.69066  0.22999  0.88347
EC61   EC   0.69066  0.77001  0.11653
EC62   EC   0.69066  0.77001  0.88347
EC63   EC   0.69066  0.88347  0.22999
EC64   EC   0.69066  0.88347  0.77001
EC65   EC   0.72999  0.19066  0.38347
EC66   EC   0.72999  0.19066  0.61653
EC67   EC   0.72999  0.38347  0.19066
EC68   EC   0.72999  0.38347  0.80934
EC69   EC   0.72999  0.61653  0.19066
EC70   EC   0.72999  0.61653  0.80934
EC71   EC   0.72999  0.80934  0.38347
EC72   EC   0.72999  0.80934  0.61653
EC73   EC   0.77001  0.11653  0.30934
EC74   EC   0.77001  0.11653  0.69066
EC75   EC   0.77001  0.30934  0.11653
EC76   EC   0.77001  0.30934  0.88347
EC77   EC   0.77001  0.69066  0.11653
EC78   EC   0.77001  0.69066  0.88347
EC79   EC   0.77001  0.88347  0.30934
EC80   EC   0.77001  0.88347  0.69066
EC81   EC   0.80934  0.27001  0.38347
EC82   EC   0.80934  0.27001  0.61653
EC83   EC   0.80934  0.38347  0.27001
EC84   EC   0.80934  0.38347  0.72999
EC85   EC   0.80934  0.61653  0.27001
EC86   EC   0.80934  0.61653  0.72999
EC87   EC   0.80934  0.72999  0.38347
EC88   EC   0.80934  0.72999  0.61653
EC89   EC   0.88347  0.22999  0.30934
EC90   EC   0.88347  0.22999  0.69066
EC91   EC   0.88347  0.30934  0.22999
EC92   EC   0.88347  0.30934  0.77001
EC93   EC   0.88347  0.69066  0.22999
EC94   EC   0.88347  0.69066  0.77001
EC95   EC   0.88347  0.77001  0.30934
EC96   EC   0.88347  0.77001  0.69066
E1    E   0.00000  0.13545  0.30823
E2    E   0.00000  0.13545  0.69177
E3    E   0.00000  0.30823  0.13545
E4    E   0.00000  0.30823  0.86455
E5    E   0.00000  0.69177  0.13545
E6    E   0.00000  0.69177  0.86455
E7    E   0.00000  0.86455  0.30823
E8    E   0.00000  0.86455  0.69177
E9    E   0.08632  0.18272  0.30879
E10   E   0.08632  0.18272  0.69121
E11   E   0.08632  0.30879  0.18272
E12   E   0.08632  0.30879  0.81728
E13   E   0.08632  0.69121  0.18272
E14   E   0.08632  0.69121  0.81728
E15   E   0.08632  0.81728  0.30879
E16   E   0.08632  0.81728  0.69121
E17   E   0.09578  0.09578  0.30823
E18   E   0.09578  0.09578  0.69177
E19   E   0.09578  0.30823  0.09578
E20   E   0.09578  0.30823  0.90422
E21   E   0.09578  0.69177  0.09578
E22   E   0.09578  0.69177  0.90422
E23   E   0.09578  0.90422  0.30823
E24   E   0.09578  0.90422  0.69177
E25   E   0.11653  0.26967  0.26967
E26   E   0.11653  0.26967  0.73033
E27   E   0.11653  0.73033  0.26967
E28   E   0.11653  0.73033  0.73033
E29   E   0.13545  0.00000  0.30823
E30   E   0.13545  0.00000  0.69177
E31   E   0.13545  0.30823  0.00000
E32   E   0.13545  0.69177  0.00000
E33   E   0.15360  0.25000  0.34640
E34   E   0.15360  0.25000  0.65360
E35   E   0.15360  0.34640  0.25000
E36   E   0.15360  0.34640  0.75000
E37   E   0.15360  0.65360  0.25000
E38   E   0.15360  0.65360  0.75000
E39   E   0.15360  0.75000  0.34640
E40   E   0.15360  0.75000  0.65360
E41   E   0.15360  0.25000  0.34640
E42   E   0.15360  0.25000  0.65360
E43   E   0.15360  0.34640  0.25000
E44   E   0.15360  0.34640  0.75000
E45   E   0.15360  0.65360  0.25000
E46   E   0.15360  0.65360  0.75000
E47   E   0.15360  0.75000  0.34640
E48   E   0.15360  0.75000  0.65360
E49   E   0.18272  0.08632  0.30879
E50   E   0.18272  0.08632  0.69121
E51   E   0.18272  0.30879  0.08632
E52   E   0.18272  0.30879  0.91368
E53   E   0.18272  0.69121  0.08632
E54   E   0.18272  0.69121  0.91368
E55   E   0.18272  0.91368  0.30879
E56   E   0.18272  0.91368  0.69121
E57   E   0.19121  0.31728  0.41368
E58   E   0.19121  0.31728  0.58632
E59   E   0.19121  0.41368  0.31728
E60   E   0.19121  0.41368  0.68272
E61   E   0.19121  0.58632  0.31728
E62   E   0.19121  0.58632  0.68272
E63   E   0.19121  0.68272  0.41368
E64   E   0.19121  0.68272  0.58632
E65   E   0.19177  0.36455  0.50000
E66   E   0.19177  0.40422  0.40422
E67   E   0.19177  0.40422  0.59578
E68   E   0.19177  0.50000  0.36455
E69   E   0.19177  0.50000  0.63545
E70   E   0.19177  0.59578  0.40422
E71   E   0.19177  0.59578  0.59578
E72   E   0.19177  0.63545  0.50000
E73   E   0.23033  0.23033  0.38347
E74   E   0.23033  0.23033  0.61653
E75   E   0.23033  0.38347  0.23033
E76   E   0.23033  0.38347  0.76967
E77   E   0.23033  0.61653  0.23033
E78   E   0.23033  0.61653  0.76967
E79   E   0.23033  0.76967  0.38347
E80   E   0.23033  0.76967  0.61653
E81   E   0.25000  0.15360  0.34640
E82   E   0.25000  0.15360  0.65360
E83   E   0.25000  0.15360  0.34640
E84   E   0.25000  0.15360  0.65360
E85   E   0.25000  0.34640  0.15360
E86   E   0.25000  0.34640  0.84640
E87   E   0.25000  0.34640  0.15360
E88   E   0.25000  0.34640  0.84640
E89   E   0.25000  0.65360  0.15360
E90   E   0.25000  0.65360  0.15360
E91   E   0.25000  0.65360  0.84640
E92   E   0.25000  0.84640  0.34640
E93   E   0.25000  0.84640  0.34640
E94   E   0.25000  0.84640  0.65360
E95   E   0.26967  0.11653  0.26967
E96   E   0.26967  0.11653  0.73033
E97   E   0.26967  0.26967  0.11653
E98   E   0.26967  0.26967  0.88347
E99   E   0.26967  0.73033  0.11653
E100  E   0.26967  0.73033  0.88347
E101  E   0.26967  0.88347  0.26967
E102  E   0.26967  0.88347  0.73033
E103  E   0.30823  0.00000  0.13545
E104  E   0.30823  0.00000  0.86455
E105  E   0.30823  0.09578  0.09578
E106  E   0.30823  0.09578  0.90422
E107  E   0.30823  0.13545  0.00000
E108  E   0.30823  0.86455  0.00000
E109  E   0.30823  0.90422  0.09578
E110  E   0.30823  0.90422  0.90422
E111  E   0.30879  0.08632  0.18272
E112  E   0.30879  0.08632  0.81728
E113  E   0.30879  0.18272  0.08632
E114  E   0.30879  0.18272  0.91368
E115  E   0.30879  0.81728  0.08632
E116  E   0.30879  0.81728  0.91368
E117  E   0.30879  0.91368  0.18272
E118  E   0.30879  0.91368  0.81728
E119  E   0.31728  0.19121  0.41368
E120  E   0.31728  0.19121  0.58632
E121  E   0.31728  0.41368  0.19121
E122  E   0.31728  0.41368  0.80879
E123  E   0.31728  0.58632  0.19121
E124  E   0.31728  0.58632  0.80879
E125  E   0.31728  0.80879  0.41368
E126  E   0.31728  0.80879  0.58632
E127  E   0.34640  0.15360  0.25000
E128  E   0.34640  0.15360  0.75000
E129  E   0.34640  0.25000  0.15360
E130  E   0.34640  0.25000  0.84640
E131  E   0.34640  0.75000  0.15360
E132  E   0.34640  0.75000  0.84640
E133  E   0.34640  0.84640  0.25000
E134  E   0.34640  0.84640  0.75000
E135  E   0.34640  0.15360  0.25000
E136  E   0.34640  0.15360  0.75000
E137  E   0.34640  0.25000  0.15360
E138  E   0.34640  0.25000  0.84640
E139  E   0.34640  0.75000  0.15360
E140  E   0.34640  0.75000  0.84640
E141  E   0.34640  0.84640  0.25000
E142  E   0.34640  0.84640  0.75000
E143  E   0.36455  0.19177  0.50000
E144  E   0.36455  0.50000  0.19177
E145  E   0.36455  0.50000  0.80823
E146  E   0.36455  0.80823  0.50000
E147  E   0.38347  0.23033  0.23033
E148  E   0.38347  0.23033  0.76967
E149  E   0.38347  0.76967  0.23033
E150  E   0.38347  0.76967  0.76967
E151  E   0.40422  0.19177  0.40422
E152  E   0.40422  0.19177  0.59578
E153  E   0.40422  0.40422  0.19177
E154  E   0.40422  0.40422  0.80823
E155  E   0.40422  0.59578  0.19177
E156  E   0.40422  0.59578  0.80823
E157  E   0.40422  0.80823  0.40422
E158  E   0.40422  0.80823  0.59578
E159  E   0.41368  0.19121  0.31728
E160  E   0.41368  0.19121  0.68272
E161  E   0.41368  0.31728  0.19121
E162  E   0.41368  0.31728  0.80879
E163  E   0.41368  0.68272  0.19121
E164  E   0.41368  0.68272  0.80879
E165  E   0.41368  0.80879  0.31728
E166  E   0.41368  0.80879  0.68272
E167  E   0.50000  0.19177  0.36455
E168  E   0.50000  0.19177  0.63545
E169  E   0.50000  0.36455  0.19177
E170  E   0.50000  0.36455  0.80823
E171  E   0.50000  0.63545  0.19177
E172  E   0.50000  0.63545  0.80823
E173  E   0.50000  0.80823  0.36455
E174  E   0.50000  0.80823  0.63545
E175  E   0.58632  0.19121  0.31728
E176  E   0.58632  0.19121  0.68272
E177  E   0.58632  0.31728  0.19121
E178  E   0.58632  0.31728  0.80879
E179  E   0.58632  0.68272  0.19121
E180  E   0.58632  0.68272  0.80879
E181  E   0.58632  0.80879  0.31728
E182  E   0.58632  0.80879  0.68272
E183  E   0.59578  0.19177  0.40422
E184  E   0.59578  0.19177  0.59578
E185  E   0.59578  0.40422  0.19177
E186  E   0.59578  0.40422  0.80823
E187  E   0.59578  0.59578  0.19177
E188  E   0.59578  0.59578  0.80823
E189  E   0.59578  0.80823  0.40422
E190  E   0.59578  0.80823  0.59578
E191  E   0.61653  0.23033  0.23033
E192  E   0.61653  0.23033  0.76967
E193  E   0.61653  0.76967  0.23033
E194  E   0.61653  0.76967  0.76967
E195  E   0.63545  0.19177  0.50000
E196  E   0.63545  0.50000  0.19177
E197  E   0.63545  0.50000  0.80823
E198  E   0.63545  0.80823  0.50000
E199  E   0.65360  0.15360  0.25000
E200  E   0.65360  0.15360  0.75000
E201  E   0.65360  0.15360  0.25000
E202  E   0.65360  0.15360  0.75000
E203  E   0.65360  0.25000  0.15360
E204  E   0.65360  0.25000  0.15360
E205  E   0.65360  0.25000  0.84640
E206  E   0.65360  0.75000  0.15360
E207  E   0.65360  0.75000  0.15360
E208  E   0.65360  0.75000  0.84640
E209  E   0.65360  0.84640  0.25000
E210  E   0.65360  0.84640  0.75000
E211  E   0.68272  0.19121  0.41368
E212  E   0.68272  0.19121  0.58632
E213  E   0.68272  0.41368  0.19121
E214  E   0.68272  0.41368  0.80879
E215  E   0.68272  0.58632  0.19121
E216  E   0.68272  0.58632  0.80879
E217  E   0.68272  0.80879  0.41368
E218  E   0.68272  0.80879  0.58632
E219  E   0.69121  0.08632  0.18272
E220  E   0.69121  0.08632  0.81728
E221  E   0.69121  0.18272  0.08632
E222  E   0.69121  0.18272  0.91368
E223  E   0.69121  0.81728  0.08632
E224  E   0.69121  0.81728  0.91368
E225  E   0.69121  0.91368  0.18272
E226  E   0.69121  0.91368  0.81728
E227  E   0.69177  0.00000  0.13545
E228  E   0.69177  0.00000  0.86455
E229  E   0.69177  0.09578  0.09578
E230  E   0.69177  0.09578  0.90422
E231  E   0.69177  0.13545  0.00000
E232  E   0.69177  0.86455  0.00000
E233  E   0.69177  0.90422  0.09578
E234  E   0.69177  0.90422  0.90422
E235  E   0.73033  0.11653  0.26967
E236  E   0.73033  0.11653  0.73033
E237  E   0.73033  0.26967  0.11653
E238  E   0.73033  0.26967  0.88347
E239  E   0.73033  0.73033  0.11653
E240  E   0.73033  0.73033  0.88347
E241  E   0.73033  0.88347  0.26967
E242  E   0.73033  0.88347  0.73033
E243  E   0.75000  0.15360  0.34640
E244  E   0.75000  0.15360  0.65360
E245  E   0.75000  0.15360  0.34640
E246  E   0.75000  0.15360  0.65360
E247  E   0.75000  0.34640  0.15360
E248  E   0.75000  0.34640  0.84640
E249  E   0.75000  0.34640  0.15360
E250  E   0.75000  0.34640  0.84640
E251  E   0.75000  0.65360  0.15360
E252  E   0.75000  0.65360  0.15360
E253  E   0.75000  0.65360  0.84640
E254  E   0.75000  0.84640  0.34640
E255  E   0.75000  0.84640  0.34640
E256  E   0.75000  0.84640  0.65360
E257  E   0.76967  0.23033  0.38347
E258  E   0.76967  0.23033  0.61653
E259  E   0.76967  0.38347  0.23033
E260  E   0.76967  0.38347  0.76967
E261  E   0.76967  0.61653  0.23033
E262  E   0.76967  0.61653  0.76967
E263  E   0.76967  0.76967  0.38347
E264  E   0.76967  0.76967  0.61653
E265  E   0.80823  0.36455  0.50000
E266  E   0.80823  0.40422  0.40422
E267  E   0.80823  0.40422  0.59578
E268  E   0.80823  0.50000  0.36455
E269  E   0.80823  0.50000  0.63545
E270  E   0.80823  0.59578  0.40422
E271  E   0.80823  0.59578  0.59578
E272  E   0.80823  0.63545  0.50000
E273  E   0.80879  0.31728  0.41368
E274  E   0.80879  0.31728  0.58632
E275  E   0.80879  0.41368  0.31728
E276  E   0.80879  0.41368  0.68272
E277  E   0.80879  0.58632  0.31728
E278  E   0.80879  0.58632  0.68272
E279  E   0.80879  0.68272  0.41368
E280  E   0.80879  0.68272  0.58632
E281  E   0.81728  0.08632  0.30879
E282  E   0.81728  0.08632  0.69121
E283  E   0.81728  0.30879  0.08632
E284  E   0.81728  0.30879  0.91368
E285  E   0.81728  0.69121  0.08632
E286  E   0.81728  0.69121  0.91368
E287  E   0.81728  0.91368  0.30879
E288  E   0.81728  0.91368  0.69121
E289  E   0.84640  0.25000  0.34640
E290  E   0.84640  0.25000  0.34640
E291  E   0.84640  0.25000  0.65360
E292  E   0.84640  0.34640  0.25000
E293  E   0.84640  0.34640  0.75000
E294  E   0.84640  0.34640  0.25000
E295  E   0.84640  0.34640  0.75000
E296  E   0.84640  0.65360  0.25000
E297  E   0.84640  0.65360  0.75000
E298  E   0.84640  0.75000  0.34640
E299  E   0.84640  0.75000  0.34640
E300  E   0.84640  0.75000  0.65360
E301  E   0.86455  0.00000  0.30823
E302  E   0.86455  0.00000  0.69177
E303  E   0.86455  0.30823  0.00000
E304  E   0.86455  0.69177  0.00000
E305  E   0.88347  0.26967  0.26967
E306  E   0.88347  0.26967  0.73033
E307  E   0.88347  0.73033  0.26967
E308  E   0.88347  0.73033  0.73033
E309  E   0.90422  0.09578  0.30823
E310  E   0.90422  0.09578  0.69177
E311  E   0.90422  0.30823  0.09578
E312  E   0.90422  0.30823  0.90422
E313  E   0.90422  0.69177  0.09578
E314  E   0.90422  0.69177  0.90422
E315  E   0.90422  0.90422  0.30823
E316  E   0.90422  0.90422  0.69177
E317  E   0.91368  0.18272  0.30879
E318  E   0.91368  0.18272  0.69121
E319  E   0.91368  0.30879  0.18272
E320  E   0.91368  0.30879  0.81728
E321  E   0.91368  0.69121  0.18272
E322  E   0.91368  0.69121  0.81728
E323  E   0.91368  0.81728  0.30879
E324  E   0.91368  0.81728  0.69121
loop_
