data_hyb_P63/mmc  hall_number: 488, V_con: 7, EC_con: 3
_audit_creation_date              2025-03-05
_audit_creation_method            'MOFbuilder_1.0'
_symmetry_space_group_name_H-M    'P1'
_symmetry_Int_Tables_number       1
_symmetry_cell_setting            triclinic
loop_
_symmetry_equiv_pos_as_xyz
  x,y,z
_cell_length_a                    37.3204
_cell_length_b                    37.3204
_cell_length_c                    16.3301
_cell_angle_alpha                 90.0
_cell_angle_beta                  90.0
_cell_angle_gamma                 120.0
loop_
_atom_site_label
_atom_site_type_symbol
_atom_site_fract_x
_atom_site_fract_y
_atom_site_fract_z
V1    V   0.08931  0.17863  0.75000
V2    V   0.08931  0.91068  0.75000
V3    V   0.08932  0.17863  0.75000
V4    V   0.08932  0.91069  0.75000
V5    V   0.17863  0.08931  0.25000
V6    V   0.17863  0.08932  0.25000
V7    V   0.82137  0.91068  0.75000
V8    V   0.82137  0.91069  0.75000
V9    V   0.91068  0.08931  0.25000
V10   V   0.91068  0.82137  0.25000
V11   V   0.91069  0.08932  0.25000
V12   V   0.91069  0.82137  0.25000
EC1    EC   0.24401  0.48803  0.75000
EC2    EC   0.24401  0.75598  0.75000
EC3    EC   0.24402  0.48803  0.75000
EC4    EC   0.24402  0.75599  0.75000
EC5    EC   0.48803  0.24401  0.25000
EC6    EC   0.48803  0.24402  0.25000
EC7    EC   0.51197  0.75598  0.75000
EC8    EC   0.51197  0.75599  0.75000
EC9    EC   0.75598  0.24401  0.25000
EC10   EC   0.75598  0.51197  0.25000
EC11   EC   0.75599  0.24402  0.25000
EC12   EC   0.75599  0.51197  0.25000
E1    E   0.00000  0.13397  0.00000
E2    E   0.00000  0.13397  0.50000
E3    E   0.00000  0.86603  0.00000
E4    E   0.00000  0.86603  0.50000
E5    E   0.04466  0.08932  0.25000
E6    E   0.04466  0.95534  0.25000
E7    E   0.08932  0.04466  0.75000
E8    E   0.13397  0.00000  0.00000
E9    E   0.13397  0.00000  0.50000
E10   E   0.13397  0.13397  0.00000
E11   E   0.13397  0.13397  0.50000
E12   E   0.16666  0.33333  0.75000
E13   E   0.16666  0.83333  0.75000
E14   E   0.16667  0.33333  0.75000
E15   E   0.16667  0.83334  0.75000
E16   E   0.24402  0.62201  0.75000
E17   E   0.24402  0.62201  0.75000
E18   E   0.33333  0.16666  0.25000
E19   E   0.33333  0.16667  0.25000
E20   E   0.37799  0.62201  0.75000
E21   E   0.37799  0.75598  0.75000
E22   E   0.37799  0.62201  0.75000
E23   E   0.37799  0.75598  0.75000
E24   E   0.62201  0.24402  0.25000
E25   E   0.62201  0.37799  0.25000
E26   E   0.62201  0.24402  0.25000
E27   E   0.62201  0.37799  0.25000
E28   E   0.66667  0.83333  0.75000
E29   E   0.66667  0.83334  0.75000
E30   E   0.75598  0.37799  0.25000
E31   E   0.75598  0.37799  0.25000
E32   E   0.83333  0.16666  0.25000
E33   E   0.83333  0.66667  0.25000
E34   E   0.83334  0.16667  0.25000
E35   E   0.83334  0.66667  0.25000
E36   E   0.86603  0.00000  0.00000
E37   E   0.86603  0.00000  0.50000
E38   E   0.86603  0.86603  0.00000
E39   E   0.86603  0.86603  0.50000
E40   E   0.91068  0.95534  0.25000
E41   E   0.95534  0.04466  0.75000
E42   E   0.95534  0.91068  0.75000
loop_
