data_ibb_Ia-3d  hall_number: 530, V_con: 12
_audit_creation_date              2025-03-05
_audit_creation_method            'MOFbuilder_1.0'
_symmetry_space_group_name_H-M    'P1'
_symmetry_Int_Tables_number       1
_symmetry_cell_setting            triclinic
loop_
_symmetry_equiv_pos_as_xyz
  x,y,z
_cell_length_a                    17.8885
_cell_length_b                    17.8885
_cell_length_c                    17.8885
_cell_angle_alpha                 90.0
_cell_angle_beta                  90.0
_cell_angle_gamma                 90.0
loop_
_atom_site_label
_atom_site_type_symbol
_atom_site_fract_x
_atom_site_fract_y
_atom_site_fract_z
V1    V   0.12500  0.12500  0.12500
V2    V   0.12500  0.37500  0.62500
V3    V   0.12500  0.62500  0.87500
V4    V   0.12500  0.87500  0.37500
V5    V   0.37500  0.12500  0.87500
V6    V   0.37500  0.37500  0.37500
V7    V   0.37500  0.62500  0.12500
V8    V   0.37500  0.87500  0.62500
V9    V   0.62500  0.12500  0.37500
V10   V   0.62500  0.37500  0.87500
V11   V   0.62500  0.62500  0.62500
V12   V   0.62500  0.87500  0.12500
V13   V   0.87500  0.12500  0.62500
V14   V   0.87500  0.37500  0.12500
V15   V   0.87500  0.62500  0.37500
V16   V   0.87500  0.87500  0.87500
E1    E   0.00000  0.12500  0.37500
E2    E   0.00000  0.12500  0.87500
E3    E   0.00000  0.37500  0.37500
E4    E   0.00000  0.37500  0.87500
E5    E   0.00000  0.62500  0.12500
E6    E   0.00000  0.62500  0.62500
E7    E   0.00000  0.87500  0.12500
E8    E   0.00000  0.87500  0.62500
E9    E   0.12500  0.00000  0.62500
E10   E   0.12500  0.00000  0.87500
E11   E   0.12500  0.12500  0.50000
E12   E   0.12500  0.12500  0.75000
E13   E   0.12500  0.25000  0.37500
E14   E   0.12500  0.25000  0.87500
E15   E   0.12500  0.37500  0.00000
E16   E   0.12500  0.37500  0.25000
E17   E   0.12500  0.50000  0.12500
E18   E   0.12500  0.50000  0.37500
E19   E   0.12500  0.62500  0.25000
E20   E   0.12500  0.62500  0.50000
E21   E   0.12500  0.75000  0.12500
E22   E   0.12500  0.75000  0.62500
E23   E   0.12500  0.87500  0.00000
E24   E   0.12500  0.87500  0.75000
E25   E   0.25000  0.12500  0.37500
E26   E   0.25000  0.12500  0.62500
E27   E   0.25000  0.37500  0.12500
E28   E   0.25000  0.37500  0.87500
E29   E   0.25000  0.62500  0.37500
E30   E   0.25000  0.62500  0.62500
E31   E   0.25000  0.87500  0.12500
E32   E   0.25000  0.87500  0.87500
E33   E   0.37500  0.00000  0.12500
E34   E   0.37500  0.00000  0.37500
E35   E   0.37500  0.12500  0.25000
E36   E   0.37500  0.12500  0.50000
E37   E   0.37500  0.25000  0.12500
E38   E   0.37500  0.25000  0.62500
E39   E   0.37500  0.37500  0.00000
E40   E   0.37500  0.37500  0.75000
E41   E   0.37500  0.50000  0.62500
E42   E   0.37500  0.50000  0.87500
E43   E   0.37500  0.62500  0.50000
E44   E   0.37500  0.62500  0.75000
E45   E   0.37500  0.75000  0.37500
E46   E   0.37500  0.75000  0.87500
E47   E   0.37500  0.87500  0.00000
E48   E   0.37500  0.87500  0.25000
E49   E   0.50000  0.12500  0.12500
E50   E   0.50000  0.12500  0.62500
E51   E   0.50000  0.37500  0.12500
E52   E   0.50000  0.37500  0.62500
E53   E   0.50000  0.62500  0.37500
E54   E   0.50000  0.62500  0.87500
E55   E   0.50000  0.87500  0.37500
E56   E   0.50000  0.87500  0.87500
E57   E   0.62500  0.00000  0.62500
E58   E   0.62500  0.00000  0.87500
E59   E   0.62500  0.12500  0.00000
E60   E   0.62500  0.12500  0.75000
E61   E   0.62500  0.25000  0.12500
E62   E   0.62500  0.25000  0.62500
E63   E   0.62500  0.37500  0.25000
E64   E   0.62500  0.37500  0.50000
E65   E   0.62500  0.50000  0.12500
E66   E   0.62500  0.50000  0.37500
E67   E   0.62500  0.62500  0.00000
E68   E   0.62500  0.62500  0.25000
E69   E   0.62500  0.75000  0.37500
E70   E   0.62500  0.75000  0.87500
E71   E   0.62500  0.87500  0.50000
E72   E   0.62500  0.87500  0.75000
E73   E   0.75000  0.12500  0.12500
E74   E   0.75000  0.12500  0.87500
E75   E   0.75000  0.37500  0.37500
E76   E   0.75000  0.37500  0.62500
E77   E   0.75000  0.62500  0.12500
E78   E   0.75000  0.62500  0.87500
E79   E   0.75000  0.87500  0.37500
E80   E   0.75000  0.87500  0.62500
E81   E   0.87500  0.00000  0.12500
E82   E   0.87500  0.00000  0.37500
E83   E   0.87500  0.12500  0.00000
E84   E   0.87500  0.12500  0.25000
E85   E   0.87500  0.25000  0.37500
E86   E   0.87500  0.25000  0.87500
E87   E   0.87500  0.37500  0.50000
E88   E   0.87500  0.37500  0.75000
E89   E   0.87500  0.50000  0.62500
E90   E   0.87500  0.50000  0.87500
E91   E   0.87500  0.62500  0.00000
E92   E   0.87500  0.62500  0.75000
E93   E   0.87500  0.75000  0.12500
E94   E   0.87500  0.75000  0.62500
E95   E   0.87500  0.87500  0.25000
E96   E   0.87500  0.87500  0.50000
loop_
