data_ibe_Ia-3d  hall_number: 530, V_con: 6, EC_con: 3
_audit_creation_date              2025-03-05
_audit_creation_method            'MOFbuilder_1.0'
_symmetry_space_group_name_H-M    'P1'
_symmetry_Int_Tables_number       1
_symmetry_cell_setting            triclinic
loop_
_symmetry_equiv_pos_as_xyz
  x,y,z
_cell_length_a                    44.6045
_cell_length_b                    44.6045
_cell_length_c                    44.6045
_cell_angle_alpha                 90.0
_cell_angle_beta                  90.0
_cell_angle_gamma                 90.0
loop_
_atom_site_label
_atom_site_type_symbol
_atom_site_fract_x
_atom_site_fract_y
_atom_site_fract_z
V1    V   0.12500  0.12500  0.12500
V2    V   0.12500  0.37500  0.62500
V3    V   0.12500  0.62500  0.87500
V4    V   0.12500  0.87500  0.37500
V5    V   0.37500  0.12500  0.87500
V6    V   0.37500  0.37500  0.37500
V7    V   0.37500  0.62500  0.12500
V8    V   0.37500  0.87500  0.62500
V9    V   0.62500  0.12500  0.37500
V10   V   0.62500  0.37500  0.87500
V11   V   0.62500  0.62500  0.62500
V12   V   0.62500  0.87500  0.12500
V13   V   0.87500  0.12500  0.62500
V14   V   0.87500  0.37500  0.12500
V15   V   0.87500  0.62500  0.37500
V16   V   0.87500  0.87500  0.87500
EC1    EC   0.00000  0.25000  0.26280
EC2    EC   0.00000  0.25000  0.48720
EC3    EC   0.00000  0.25000  0.76280
EC4    EC   0.00000  0.25000  0.98720
EC5    EC   0.00000  0.75000  0.01280
EC6    EC   0.00000  0.75000  0.23720
EC7    EC   0.00000  0.75000  0.51280
EC8    EC   0.00000  0.75000  0.73720
EC9    EC   0.01280  0.00000  0.75000
EC10   EC   0.01280  0.50000  0.25000
EC11   EC   0.23720  0.00000  0.75000
EC12   EC   0.23720  0.50000  0.25000
EC13   EC   0.25000  0.01280  0.50000
EC14   EC   0.25000  0.23720  0.50000
EC15   EC   0.25000  0.26280  0.00000
EC16   EC   0.25000  0.48720  0.00000
EC17   EC   0.25000  0.51280  0.50000
EC18   EC   0.25000  0.73720  0.50000
EC19   EC   0.25000  0.76280  0.00000
EC20   EC   0.25000  0.98720  0.00000
EC21   EC   0.26280  0.00000  0.25000
EC22   EC   0.26280  0.50000  0.75000
EC23   EC   0.48720  0.00000  0.25000
EC24   EC   0.48720  0.50000  0.75000
EC25   EC   0.50000  0.25000  0.01280
EC26   EC   0.50000  0.25000  0.23720
EC27   EC   0.50000  0.25000  0.51280
EC28   EC   0.50000  0.25000  0.73720
EC29   EC   0.50000  0.75000  0.26280
EC30   EC   0.50000  0.75000  0.48720
EC31   EC   0.50000  0.75000  0.76280
EC32   EC   0.50000  0.75000  0.98720
EC33   EC   0.51280  0.00000  0.75000
EC34   EC   0.51280  0.50000  0.25000
EC35   EC   0.73720  0.00000  0.75000
EC36   EC   0.73720  0.50000  0.25000
EC37   EC   0.75000  0.01280  0.00000
EC38   EC   0.75000  0.23720  0.00000
EC39   EC   0.75000  0.26280  0.50000
EC40   EC   0.75000  0.48720  0.50000
EC41   EC   0.75000  0.51280  0.00000
EC42   EC   0.75000  0.73720  0.00000
EC43   EC   0.75000  0.76280  0.50000
EC44   EC   0.75000  0.98720  0.50000
EC45   EC   0.76280  0.00000  0.25000
EC46   EC   0.76280  0.50000  0.75000
EC47   EC   0.98720  0.00000  0.25000
EC48   EC   0.98720  0.50000  0.75000
E1    E   0.00000  0.25000  0.37500
E2    E   0.00000  0.25000  0.87500
E3    E   0.00000  0.75000  0.12500
E4    E   0.00000  0.75000  0.62500
E5    E   0.05610  0.06250  0.18750
E6    E   0.05610  0.43750  0.68750
E7    E   0.05610  0.56250  0.81250
E8    E   0.05610  0.93750  0.31250
E9    E   0.06250  0.18750  0.05610
E10   E   0.06250  0.18750  0.19390
E11   E   0.06250  0.31250  0.55610
E12   E   0.06250  0.31250  0.69390
E13   E   0.06250  0.68750  0.80610
E14   E   0.06250  0.68750  0.94390
E15   E   0.06250  0.81250  0.30610
E16   E   0.06250  0.81250  0.44390
E17   E   0.12500  0.00000  0.75000
E18   E   0.12500  0.50000  0.25000
E19   E   0.18750  0.05610  0.06250
E20   E   0.18750  0.19390  0.06250
E21   E   0.18750  0.30610  0.56250
E22   E   0.18750  0.44390  0.56250
E23   E   0.18750  0.55610  0.93750
E24   E   0.18750  0.69390  0.93750
E25   E   0.18750  0.80610  0.43750
E26   E   0.18750  0.94390  0.43750
E27   E   0.19390  0.06250  0.18750
E28   E   0.19390  0.43750  0.68750
E29   E   0.19390  0.56250  0.81250
E30   E   0.19390  0.93750  0.31250
E31   E   0.25000  0.12500  0.50000
E32   E   0.25000  0.37500  0.00000
E33   E   0.25000  0.62500  0.50000
E34   E   0.25000  0.87500  0.00000
E35   E   0.30610  0.06250  0.81250
E36   E   0.30610  0.43750  0.31250
E37   E   0.30610  0.56250  0.18750
E38   E   0.30610  0.93750  0.68750
E39   E   0.31250  0.05610  0.93750
E40   E   0.31250  0.19390  0.93750
E41   E   0.31250  0.30610  0.43750
E42   E   0.31250  0.44390  0.43750
E43   E   0.31250  0.55610  0.06250
E44   E   0.31250  0.69390  0.06250
E45   E   0.31250  0.80610  0.56250
E46   E   0.31250  0.94390  0.56250
E47   E   0.37500  0.00000  0.25000
E48   E   0.37500  0.50000  0.75000
E49   E   0.43750  0.18750  0.80610
E50   E   0.43750  0.18750  0.94390
E51   E   0.43750  0.31250  0.30610
E52   E   0.43750  0.31250  0.44390
E53   E   0.43750  0.68750  0.05610
E54   E   0.43750  0.68750  0.19390
E55   E   0.43750  0.81250  0.55610
E56   E   0.43750  0.81250  0.69390
E57   E   0.44390  0.06250  0.81250
E58   E   0.44390  0.43750  0.31250
E59   E   0.44390  0.56250  0.18750
E60   E   0.44390  0.93750  0.68750
E61   E   0.50000  0.25000  0.12500
E62   E   0.50000  0.25000  0.62500
E63   E   0.50000  0.75000  0.37500
E64   E   0.50000  0.75000  0.87500
E65   E   0.55610  0.06250  0.31250
E66   E   0.55610  0.43750  0.81250
E67   E   0.55610  0.56250  0.68750
E68   E   0.55610  0.93750  0.18750
E69   E   0.56250  0.18750  0.30610
E70   E   0.56250  0.18750  0.44390
E71   E   0.56250  0.31250  0.80610
E72   E   0.56250  0.31250  0.94390
E73   E   0.56250  0.68750  0.55610
E74   E   0.56250  0.68750  0.69390
E75   E   0.56250  0.81250  0.05610
E76   E   0.56250  0.81250  0.19390
E77   E   0.62500  0.00000  0.75000
E78   E   0.62500  0.50000  0.25000
E79   E   0.68750  0.05610  0.43750
E80   E   0.68750  0.19390  0.43750
E81   E   0.68750  0.30610  0.93750
E82   E   0.68750  0.44390  0.93750
E83   E   0.68750  0.55610  0.56250
E84   E   0.68750  0.69390  0.56250
E85   E   0.68750  0.80610  0.06250
E86   E   0.68750  0.94390  0.06250
E87   E   0.69390  0.06250  0.31250
E88   E   0.69390  0.43750  0.81250
E89   E   0.69390  0.56250  0.68750
E90   E   0.69390  0.93750  0.18750
E91   E   0.75000  0.12500  0.00000
E92   E   0.75000  0.37500  0.50000
E93   E   0.75000  0.62500  0.00000
E94   E   0.75000  0.87500  0.50000
E95   E   0.80610  0.06250  0.68750
E96   E   0.80610  0.43750  0.18750
E97   E   0.80610  0.56250  0.31250
E98   E   0.80610  0.93750  0.81250
E99   E   0.81250  0.05610  0.56250
E100  E   0.81250  0.19390  0.56250
E101  E   0.81250  0.30610  0.06250
E102  E   0.81250  0.44390  0.06250
E103  E   0.81250  0.55610  0.43750
E104  E   0.81250  0.69390  0.43750
E105  E   0.81250  0.80610  0.93750
E106  E   0.81250  0.94390  0.93750
E107  E   0.87500  0.00000  0.25000
E108  E   0.87500  0.50000  0.75000
E109  E   0.93750  0.18750  0.55610
E110  E   0.93750  0.18750  0.69390
E111  E   0.93750  0.31250  0.05610
E112  E   0.93750  0.31250  0.19390
E113  E   0.93750  0.68750  0.30610
E114  E   0.93750  0.68750  0.44390
E115  E   0.93750  0.81250  0.80610
E116  E   0.93750  0.81250  0.94390
E117  E   0.94390  0.06250  0.68750
E118  E   0.94390  0.43750  0.18750
E119  E   0.94390  0.56250  0.31250
E120  E   0.94390  0.93750  0.81250
loop_
