data_icm_P63/mmc  hall_number: 488, V_con: 4, EC_con: 4
_audit_creation_date              2025-03-05
_audit_creation_method            'MOFbuilder_1.0'
_symmetry_space_group_name_H-M    'P1'
_symmetry_Int_Tables_number       1
_symmetry_cell_setting            triclinic
loop_
_symmetry_equiv_pos_as_xyz
  x,y,z
_cell_length_a                    25.4556
_cell_length_b                    25.4556
_cell_length_c                    58.0556
_cell_angle_alpha                 90.0
_cell_angle_beta                  90.0
_cell_angle_gamma                 120.0
loop_
_atom_site_label
_atom_site_type_symbol
_atom_site_fract_x
_atom_site_fract_y
_atom_site_fract_z
V1    V   0.00000  0.00000  0.08612
V2    V   0.00000  0.00000  0.41388
V3    V   0.00000  0.00000  0.58612
V4    V   0.00000  0.00000  0.91388
EC1    EC   0.20238  0.40477  0.66388
EC2    EC   0.20238  0.40477  0.83612
EC3    EC   0.20238  0.79761  0.66388
EC4    EC   0.20238  0.79761  0.83612
EC5    EC   0.20239  0.40477  0.66388
EC6    EC   0.20239  0.40477  0.83612
EC7    EC   0.20239  0.79762  0.66388
EC8    EC   0.20239  0.79762  0.83612
EC9    EC   0.40477  0.20238  0.16388
EC10   EC   0.40477  0.20238  0.33612
EC11   EC   0.40477  0.20239  0.16388
EC12   EC   0.40477  0.20239  0.33612
EC13   EC   0.59523  0.79761  0.66388
EC14   EC   0.59523  0.79761  0.83612
EC15   EC   0.59523  0.79762  0.66388
EC16   EC   0.59523  0.79762  0.83612
EC17   EC   0.79761  0.20238  0.16388
EC18   EC   0.79761  0.20238  0.33612
EC19   EC   0.79761  0.59523  0.16388
EC20   EC   0.79761  0.59523  0.33612
EC21   EC   0.79762  0.20239  0.16388
EC22   EC   0.79762  0.20239  0.33612
EC23   EC   0.79762  0.59523  0.16388
EC24   EC   0.79762  0.59523  0.33612
E1    E   0.00000  0.00000  0.00000
E2    E   0.00000  0.00000  0.50000
E3    E   0.10119  0.20239  0.62500
E4    E   0.10119  0.20239  0.87500
E5    E   0.10119  0.89880  0.62500
E6    E   0.10119  0.89880  0.87500
E7    E   0.10120  0.20239  0.62500
E8    E   0.10120  0.20239  0.87500
E9    E   0.10120  0.89881  0.62500
E10   E   0.10120  0.89881  0.87500
E11   E   0.20238  0.40477  0.75000
E12   E   0.20238  0.79761  0.75000
E13   E   0.20239  0.10119  0.12500
E14   E   0.20239  0.10119  0.37500
E15   E   0.20239  0.10120  0.12500
E16   E   0.20239  0.10120  0.37500
E17   E   0.20239  0.40477  0.75000
E18   E   0.20239  0.60119  0.66388
E19   E   0.20239  0.60119  0.83612
E20   E   0.20239  0.60120  0.66388
E21   E   0.20239  0.60120  0.83612
E22   E   0.20239  0.79762  0.75000
E23   E   0.39880  0.60119  0.66388
E24   E   0.39880  0.60119  0.83612
E25   E   0.39880  0.79761  0.66388
E26   E   0.39880  0.79761  0.83612
E27   E   0.39881  0.60120  0.66388
E28   E   0.39881  0.60120  0.83612
E29   E   0.39881  0.79761  0.66388
E30   E   0.39881  0.79761  0.83612
E31   E   0.40477  0.20238  0.25000
E32   E   0.40477  0.20239  0.25000
E33   E   0.59523  0.79761  0.75000
E34   E   0.59523  0.79762  0.75000
E35   E   0.60119  0.20239  0.16388
E36   E   0.60119  0.20239  0.33612
E37   E   0.60119  0.39880  0.16388
E38   E   0.60119  0.39880  0.33612
E39   E   0.60120  0.20239  0.16388
E40   E   0.60120  0.20239  0.33612
E41   E   0.60120  0.39881  0.16388
E42   E   0.60120  0.39881  0.33612
E43   E   0.79761  0.20238  0.25000
E44   E   0.79761  0.39880  0.16388
E45   E   0.79761  0.39880  0.33612
E46   E   0.79761  0.39881  0.16388
E47   E   0.79761  0.39881  0.33612
E48   E   0.79761  0.59523  0.25000
E49   E   0.79761  0.89880  0.62500
E50   E   0.79761  0.89880  0.87500
E51   E   0.79761  0.89881  0.62500
E52   E   0.79761  0.89881  0.87500
E53   E   0.79762  0.20239  0.25000
E54   E   0.79762  0.59523  0.25000
E55   E   0.89880  0.10119  0.12500
E56   E   0.89880  0.10119  0.37500
E57   E   0.89880  0.79761  0.12500
E58   E   0.89880  0.79761  0.37500
E59   E   0.89881  0.10120  0.12500
E60   E   0.89881  0.10120  0.37500
E61   E   0.89881  0.79761  0.12500
E62   E   0.89881  0.79761  0.37500
loop_
