data_isq_P42/mnm  hall_number: 419, V_con: 4, EC_con: 4
_audit_creation_date              2025-03-05
_audit_creation_method            'MOFbuilder_1.0'
_symmetry_space_group_name_H-M    'P1'
_symmetry_Int_Tables_number       1
_symmetry_cell_setting            triclinic
loop_
_symmetry_equiv_pos_as_xyz
  x,y,z
_cell_length_a                    23.1617
_cell_length_b                    23.1617
_cell_length_c                    39.0885
_cell_angle_alpha                 90.0
_cell_angle_beta                  90.0
_cell_angle_gamma                 90.0
loop_
_atom_site_label
_atom_site_type_symbol
_atom_site_fract_x
_atom_site_fract_y
_atom_site_fract_z
V1    V   0.15265  0.15265  0.12792
V2    V   0.15265  0.15265  0.87208
V3    V   0.34735  0.65265  0.37208
V4    V   0.34735  0.65265  0.62792
V5    V   0.65265  0.34735  0.37208
V6    V   0.65265  0.34735  0.62792
V7    V   0.84735  0.84735  0.12792
V8    V   0.84735  0.84735  0.87208
EC1    EC   0.00000  0.50000  0.25000
EC2    EC   0.00000  0.50000  0.75000
EC3    EC   0.50000  0.00000  0.25000
EC4    EC   0.50000  0.00000  0.75000
E1    E   0.00000  0.00000  0.12792
E2    E   0.00000  0.00000  0.87208
E3    E   0.07632  0.32632  0.18896
E4    E   0.07632  0.32632  0.81104
E5    E   0.15265  0.15265  0.00000
E6    E   0.17368  0.57632  0.31104
E7    E   0.17368  0.57632  0.68896
E8    E   0.32632  0.07632  0.18896
E9    E   0.32632  0.07632  0.81104
E10   E   0.34735  0.65265  0.50000
E11   E   0.42368  0.82632  0.31104
E12   E   0.42368  0.82632  0.68896
E13   E   0.50000  0.50000  0.37208
E14   E   0.50000  0.50000  0.62792
E15   E   0.57632  0.17368  0.31104
E16   E   0.57632  0.17368  0.68896
E17   E   0.65265  0.34735  0.50000
E18   E   0.67368  0.92368  0.18896
E19   E   0.67368  0.92368  0.81104
E20   E   0.82632  0.42368  0.31104
E21   E   0.82632  0.42368  0.68896
E22   E   0.84735  0.84735  0.00000
E23   E   0.92368  0.67368  0.18896
E24   E   0.92368  0.67368  0.81104
loop_
