data_ith-a_Pm-3n  hall_number: 520, V_con: 6, EC_con: 4
_audit_creation_date              2025-03-05
_audit_creation_method            'MOFbuilder_1.0'
_symmetry_space_group_name_H-M    'P1'
_symmetry_Int_Tables_number       1
_symmetry_cell_setting            triclinic
loop_
_symmetry_equiv_pos_as_xyz
  x,y,z
_cell_length_a                    45.3755
_cell_length_b                    45.3755
_cell_length_c                    45.3755
_cell_angle_alpha                 90.0
_cell_angle_beta                  90.0
_cell_angle_gamma                 90.0
loop_
_atom_site_label
_atom_site_type_symbol
_atom_site_fract_x
_atom_site_fract_y
_atom_site_fract_z
V1    V   0.00000  0.17829  0.11019
V2    V   0.00000  0.17829  0.88981
V3    V   0.00000  0.82171  0.11019
V4    V   0.00000  0.82171  0.88981
V5    V   0.11019  0.00000  0.17829
V6    V   0.11019  0.00000  0.82171
V7    V   0.17829  0.11019  0.00000
V8    V   0.17829  0.88981  0.00000
V9    V   0.32171  0.50000  0.38981
V10   V   0.32171  0.50000  0.61019
V11   V   0.38981  0.32171  0.50000
V12   V   0.38981  0.67829  0.50000
V13   V   0.50000  0.38981  0.32171
V14   V   0.50000  0.38981  0.67829
V15   V   0.50000  0.61019  0.32171
V16   V   0.50000  0.61019  0.67829
V17   V   0.61019  0.32171  0.50000
V18   V   0.61019  0.67829  0.50000
V19   V   0.67829  0.50000  0.38981
V20   V   0.67829  0.50000  0.61019
V21   V   0.82171  0.11019  0.00000
V22   V   0.82171  0.88981  0.00000
V23   V   0.88981  0.00000  0.17829
V24   V   0.88981  0.00000  0.82171
EC1    EC   0.00000  0.38981  0.17208
EC2    EC   0.00000  0.38981  0.82792
EC3    EC   0.00000  0.61019  0.17208
EC4    EC   0.00000  0.61019  0.82792
EC5    EC   0.11019  0.50000  0.32792
EC6    EC   0.11019  0.50000  0.67208
EC7    EC   0.17208  0.00000  0.38981
EC8    EC   0.17208  0.00000  0.61019
EC9    EC   0.32792  0.11019  0.50000
EC10   EC   0.32792  0.88981  0.50000
EC11   EC   0.38981  0.17208  0.00000
EC12   EC   0.38981  0.82792  0.00000
EC13   EC   0.50000  0.32792  0.11019
EC14   EC   0.50000  0.32792  0.88981
EC15   EC   0.50000  0.67208  0.11019
EC16   EC   0.50000  0.67208  0.88981
EC17   EC   0.61019  0.17208  0.00000
EC18   EC   0.61019  0.82792  0.00000
EC19   EC   0.67208  0.11019  0.50000
EC20   EC   0.67208  0.88981  0.50000
EC21   EC   0.82792  0.00000  0.38981
EC22   EC   0.82792  0.00000  0.61019
EC23   EC   0.88981  0.50000  0.32792
EC24   EC   0.88981  0.50000  0.67208
E1    E   0.00000  0.00000  0.17829
E2    E   0.00000  0.00000  0.82171
E3    E   0.00000  0.17829  0.00000
E4    E   0.00000  0.28405  0.14114
E5    E   0.00000  0.28405  0.85886
E6    E   0.00000  0.50000  0.17208
E7    E   0.00000  0.50000  0.32792
E8    E   0.00000  0.50000  0.67208
E9    E   0.00000  0.50000  0.82792
E10   E   0.00000  0.71595  0.14114
E11   E   0.00000  0.71595  0.85886
E12   E   0.00000  0.82171  0.00000
E13   E   0.05510  0.44490  0.25000
E14   E   0.05510  0.44490  0.75000
E15   E   0.05510  0.55510  0.25000
E16   E   0.05510  0.55510  0.75000
E17   E   0.05510  0.08915  0.14424
E18   E   0.05510  0.08915  0.85576
E19   E   0.05510  0.44490  0.25000
E20   E   0.05510  0.44490  0.75000
E21   E   0.05510  0.55510  0.25000
E22   E   0.05510  0.55510  0.75000
E23   E   0.05510  0.91085  0.14424
E24   E   0.05510  0.91085  0.85576
E25   E   0.08915  0.14424  0.05510
E26   E   0.08915  0.14424  0.94490
E27   E   0.08915  0.85576  0.05510
E28   E   0.08915  0.85576  0.94490
E29   E   0.14114  0.00000  0.28405
E30   E   0.14114  0.00000  0.71595
E31   E   0.14424  0.05510  0.08915
E32   E   0.14424  0.05510  0.91085
E33   E   0.14424  0.94490  0.08915
E34   E   0.14424  0.94490  0.91085
E35   E   0.17208  0.00000  0.50000
E36   E   0.17829  0.00000  0.00000
E37   E   0.21595  0.50000  0.35886
E38   E   0.21595  0.50000  0.64114
E39   E   0.25000  0.05510  0.44490
E40   E   0.25000  0.05510  0.55510
E41   E   0.25000  0.05510  0.44490
E42   E   0.25000  0.05510  0.55510
E43   E   0.25000  0.94490  0.44490
E44   E   0.25000  0.94490  0.55510
E45   E   0.25000  0.94490  0.44490
E46   E   0.25000  0.94490  0.55510
E47   E   0.28405  0.14114  0.00000
E48   E   0.28405  0.85886  0.00000
E49   E   0.32171  0.50000  0.50000
E50   E   0.32792  0.00000  0.50000
E51   E   0.35576  0.41085  0.44490
E52   E   0.35576  0.41085  0.55510
E53   E   0.35576  0.58915  0.44490
E54   E   0.35576  0.58915  0.55510
E55   E   0.35886  0.21595  0.50000
E56   E   0.35886  0.78405  0.50000
E57   E   0.41085  0.44490  0.35576
E58   E   0.41085  0.44490  0.64424
E59   E   0.41085  0.55510  0.35576
E60   E   0.41085  0.55510  0.64424
E61   E   0.44490  0.25000  0.05510
E62   E   0.44490  0.25000  0.05510
E63   E   0.44490  0.25000  0.94490
E64   E   0.44490  0.25000  0.94490
E65   E   0.44490  0.35576  0.41085
E66   E   0.44490  0.35576  0.58915
E67   E   0.44490  0.64424  0.41085
E68   E   0.44490  0.64424  0.58915
E69   E   0.44490  0.75000  0.05510
E70   E   0.44490  0.75000  0.05510
E71   E   0.44490  0.75000  0.94490
E72   E   0.44490  0.75000  0.94490
E73   E   0.50000  0.17208  0.00000
E74   E   0.50000  0.32171  0.50000
E75   E   0.50000  0.32792  0.00000
E76   E   0.50000  0.35886  0.21595
E77   E   0.50000  0.35886  0.78405
E78   E   0.50000  0.50000  0.32171
E79   E   0.50000  0.50000  0.67829
E80   E   0.50000  0.64114  0.21595
E81   E   0.50000  0.64114  0.78405
E82   E   0.50000  0.67208  0.00000
E83   E   0.50000  0.67829  0.50000
E84   E   0.50000  0.82792  0.00000
E85   E   0.55510  0.25000  0.05510
E86   E   0.55510  0.25000  0.94490
E87   E   0.55510  0.75000  0.05510
E88   E   0.55510  0.75000  0.94490
E89   E   0.55510  0.25000  0.05510
E90   E   0.55510  0.25000  0.94490
E91   E   0.55510  0.35576  0.41085
E92   E   0.55510  0.35576  0.58915
E93   E   0.55510  0.64424  0.41085
E94   E   0.55510  0.64424  0.58915
E95   E   0.55510  0.75000  0.05510
E96   E   0.55510  0.75000  0.94490
E97   E   0.58915  0.44490  0.35576
E98   E   0.58915  0.44490  0.64424
E99   E   0.58915  0.55510  0.35576
E100  E   0.58915  0.55510  0.64424
E101  E   0.64114  0.21595  0.50000
E102  E   0.64114  0.78405  0.50000
E103  E   0.64424  0.41085  0.44490
E104  E   0.64424  0.41085  0.55510
E105  E   0.64424  0.58915  0.44490
E106  E   0.64424  0.58915  0.55510
E107  E   0.67208  0.00000  0.50000
E108  E   0.67829  0.50000  0.50000
E109  E   0.71595  0.14114  0.00000
E110  E   0.71595  0.85886  0.00000
E111  E   0.75000  0.05510  0.44490
E112  E   0.75000  0.05510  0.55510
E113  E   0.75000  0.05510  0.44490
E114  E   0.75000  0.05510  0.55510
E115  E   0.75000  0.94490  0.44490
E116  E   0.75000  0.94490  0.55510
E117  E   0.75000  0.94490  0.44490
E118  E   0.75000  0.94490  0.55510
E119  E   0.78405  0.50000  0.35886
E120  E   0.78405  0.50000  0.64114
E121  E   0.82171  0.00000  0.00000
E122  E   0.82792  0.00000  0.50000
E123  E   0.85576  0.05510  0.08915
E124  E   0.85576  0.05510  0.91085
E125  E   0.85576  0.94490  0.08915
E126  E   0.85576  0.94490  0.91085
E127  E   0.85886  0.00000  0.28405
E128  E   0.85886  0.00000  0.71595
E129  E   0.91085  0.14424  0.05510
E130  E   0.91085  0.14424  0.94490
E131  E   0.91085  0.85576  0.05510
E132  E   0.91085  0.85576  0.94490
E133  E   0.94490  0.08915  0.14424
E134  E   0.94490  0.08915  0.85576
E135  E   0.94490  0.44490  0.25000
E136  E   0.94490  0.44490  0.75000
E137  E   0.94490  0.55510  0.25000
E138  E   0.94490  0.55510  0.75000
E139  E   0.94490  0.91085  0.14424
E140  E   0.94490  0.91085  0.85576
E141  E   0.94490  0.44490  0.25000
E142  E   0.94490  0.44490  0.75000
E143  E   0.94490  0.55510  0.25000
E144  E   0.94490  0.55510  0.75000
loop_
