data_lcs-f_Ia-3d  hall_number: 530, V_con: 3
_audit_creation_date              2025-03-05
_audit_creation_method            'MOFbuilder_1.0'
_symmetry_space_group_name_H-M    'P1'
_symmetry_Int_Tables_number       1
_symmetry_cell_setting            triclinic
loop_
_symmetry_equiv_pos_as_xyz
  x,y,z
_cell_length_a                    76.6583
_cell_length_b                    76.6583
_cell_length_c                    76.6583
_cell_angle_alpha                 90.0
_cell_angle_beta                  90.0
_cell_angle_gamma                 90.0
loop_
_atom_site_label
_atom_site_type_symbol
_atom_site_fract_x
_atom_site_fract_y
_atom_site_fract_z
V1    V   0.04405  0.17517  0.85300
V2    V   0.04405  0.32483  0.35300
V3    V   0.04405  0.67517  0.14700
V4    V   0.04405  0.82483  0.64700
V5    V   0.07483  0.20595  0.39700
V6    V   0.07483  0.29405  0.89700
V7    V   0.07483  0.70595  0.60300
V8    V   0.07483  0.79405  0.10300
V9    V   0.10300  0.07483  0.79405
V10   V   0.10300  0.42517  0.29405
V11   V   0.10300  0.57483  0.20595
V12   V   0.10300  0.92517  0.70595
V13   V   0.14700  0.04405  0.67517
V14   V   0.14700  0.45595  0.17517
V15   V   0.14700  0.54405  0.32483
V16   V   0.14700  0.95595  0.82483
V17   V   0.17517  0.14700  0.45595
V18   V   0.17517  0.35300  0.95595
V19   V   0.17517  0.64700  0.54405
V20   V   0.17517  0.85300  0.04405
V21   V   0.20595  0.10300  0.57483
V22   V   0.20595  0.39700  0.07483
V23   V   0.20595  0.60300  0.42517
V24   V   0.20595  0.89700  0.92517
V25   V   0.29405  0.10300  0.42517
V26   V   0.29405  0.39700  0.92517
V27   V   0.29405  0.60300  0.57483
V28   V   0.29405  0.89700  0.07483
V29   V   0.32483  0.14700  0.54405
V30   V   0.32483  0.35300  0.04405
V31   V   0.32483  0.64700  0.45595
V32   V   0.32483  0.85300  0.95595
V33   V   0.35300  0.04405  0.32483
V34   V   0.35300  0.45595  0.82483
V35   V   0.35300  0.54405  0.67517
V36   V   0.35300  0.95595  0.17517
V37   V   0.39700  0.07483  0.20595
V38   V   0.39700  0.42517  0.70595
V39   V   0.39700  0.57483  0.79405
V40   V   0.39700  0.92517  0.29405
V41   V   0.42517  0.20595  0.60300
V42   V   0.42517  0.29405  0.10300
V43   V   0.42517  0.70595  0.39700
V44   V   0.42517  0.79405  0.89700
V45   V   0.45595  0.17517  0.14700
V46   V   0.45595  0.32483  0.64700
V47   V   0.45595  0.67517  0.85300
V48   V   0.45595  0.82483  0.35300
V49   V   0.54405  0.17517  0.64700
V50   V   0.54405  0.32483  0.14700
V51   V   0.54405  0.67517  0.35300
V52   V   0.54405  0.82483  0.85300
V53   V   0.57483  0.20595  0.10300
V54   V   0.57483  0.29405  0.60300
V55   V   0.57483  0.70595  0.89700
V56   V   0.57483  0.79405  0.39700
V57   V   0.60300  0.07483  0.70595
V58   V   0.60300  0.42517  0.20595
V59   V   0.60300  0.57483  0.29405
V60   V   0.60300  0.92517  0.79405
V61   V   0.64700  0.04405  0.82483
V62   V   0.64700  0.45595  0.32483
V63   V   0.64700  0.54405  0.17517
V64   V   0.64700  0.95595  0.67517
V65   V   0.67517  0.14700  0.04405
V66   V   0.67517  0.35300  0.54405
V67   V   0.67517  0.64700  0.95595
V68   V   0.67517  0.85300  0.45595
V69   V   0.70595  0.10300  0.92517
V70   V   0.70595  0.39700  0.42517
V71   V   0.70595  0.60300  0.07483
V72   V   0.70595  0.89700  0.57483
V73   V   0.79405  0.10300  0.07483
V74   V   0.79405  0.39700  0.57483
V75   V   0.79405  0.60300  0.92517
V76   V   0.79405  0.89700  0.42517
V77   V   0.82483  0.14700  0.95595
V78   V   0.82483  0.35300  0.45595
V79   V   0.82483  0.64700  0.04405
V80   V   0.82483  0.85300  0.54405
V81   V   0.85300  0.04405  0.17517
V82   V   0.85300  0.45595  0.67517
V83   V   0.85300  0.54405  0.82483
V84   V   0.85300  0.95595  0.32483
V85   V   0.89700  0.07483  0.29405
V86   V   0.89700  0.42517  0.79405
V87   V   0.89700  0.57483  0.70595
V88   V   0.89700  0.92517  0.20595
V89   V   0.92517  0.20595  0.89700
V90   V   0.92517  0.29405  0.39700
V91   V   0.92517  0.70595  0.10300
V92   V   0.92517  0.79405  0.60300
V93   V   0.95595  0.17517  0.35300
V94   V   0.95595  0.32483  0.85300
V95   V   0.95595  0.67517  0.64700
V96   V   0.95595  0.82483  0.14700
E1    E   0.01539  0.19056  0.37500
E2    E   0.01539  0.30944  0.87500
E3    E   0.01539  0.69056  0.62500
E4    E   0.01539  0.80944  0.12500
E5    E   0.05944  0.23461  0.87500
E6    E   0.05944  0.26539  0.37500
E7    E   0.05944  0.73461  0.12500
E8    E   0.05944  0.76539  0.62500
E9    E   0.07353  0.12500  0.82353
E10   E   0.07353  0.37500  0.32353
E11   E   0.07353  0.62500  0.17647
E12   E   0.07353  0.87500  0.67647
E13   E   0.07353  0.12500  0.82353
E14   E   0.07353  0.37500  0.32353
E15   E   0.07353  0.62500  0.17647
E16   E   0.07353  0.87500  0.67647
E17   E   0.12500  0.01539  0.80944
E18   E   0.12500  0.05944  0.73461
E19   E   0.12500  0.17647  0.42647
E20   E   0.12500  0.17647  0.42647
E21   E   0.12500  0.32353  0.92647
E22   E   0.12500  0.44056  0.23461
E23   E   0.12500  0.48461  0.30944
E24   E   0.12500  0.51539  0.19056
E25   E   0.12500  0.55944  0.26539
E26   E   0.12500  0.67647  0.57353
E27   E   0.12500  0.82353  0.07353
E28   E   0.12500  0.82353  0.07353
E29   E   0.12500  0.94056  0.76539
E30   E   0.12500  0.98461  0.69056
E31   E   0.17647  0.07353  0.62500
E32   E   0.17647  0.42647  0.12500
E33   E   0.17647  0.57353  0.37500
E34   E   0.17647  0.92647  0.87500
E35   E   0.17647  0.07353  0.62500
E36   E   0.17647  0.42647  0.12500
E37   E   0.17647  0.57353  0.37500
E38   E   0.17647  0.92647  0.87500
E39   E   0.19056  0.12500  0.51539
E40   E   0.19056  0.37500  0.01539
E41   E   0.19056  0.62500  0.48461
E42   E   0.19056  0.87500  0.98461
E43   E   0.23461  0.12500  0.44056
E44   E   0.23461  0.37500  0.94056
E45   E   0.23461  0.62500  0.55944
E46   E   0.23461  0.87500  0.05944
E47   E   0.26539  0.12500  0.55944
E48   E   0.26539  0.37500  0.05944
E49   E   0.26539  0.62500  0.44056
E50   E   0.26539  0.87500  0.94056
E51   E   0.30944  0.12500  0.48461
E52   E   0.30944  0.37500  0.98461
E53   E   0.30944  0.62500  0.51539
E54   E   0.30944  0.87500  0.01539
E55   E   0.32353  0.07353  0.37500
E56   E   0.32353  0.07353  0.37500
E57   E   0.32353  0.42647  0.87500
E58   E   0.32353  0.57353  0.62500
E59   E   0.32353  0.92647  0.12500
E60   E   0.37500  0.01539  0.19056
E61   E   0.37500  0.05944  0.26539
E62   E   0.37500  0.17647  0.57353
E63   E   0.37500  0.17647  0.57353
E64   E   0.37500  0.32353  0.07353
E65   E   0.37500  0.32353  0.07353
E66   E   0.37500  0.44056  0.76539
E67   E   0.37500  0.48461  0.69056
E68   E   0.37500  0.51539  0.80944
E69   E   0.37500  0.55944  0.73461
E70   E   0.37500  0.67647  0.42647
E71   E   0.37500  0.82353  0.92647
E72   E   0.37500  0.94056  0.23461
E73   E   0.37500  0.98461  0.30944
E74   E   0.42647  0.12500  0.17647
E75   E   0.42647  0.12500  0.17647
E76   E   0.42647  0.37500  0.67647
E77   E   0.42647  0.62500  0.82353
E78   E   0.42647  0.87500  0.32353
E79   E   0.44056  0.23461  0.12500
E80   E   0.44056  0.26539  0.62500
E81   E   0.44056  0.73461  0.87500
E82   E   0.44056  0.76539  0.37500
E83   E   0.48461  0.19056  0.62500
E84   E   0.48461  0.30944  0.12500
E85   E   0.48461  0.69056  0.37500
E86   E   0.48461  0.80944  0.87500
E87   E   0.51539  0.19056  0.12500
E88   E   0.51539  0.30944  0.62500
E89   E   0.51539  0.69056  0.87500
E90   E   0.51539  0.80944  0.37500
E91   E   0.55944  0.23461  0.62500
E92   E   0.55944  0.26539  0.12500
E93   E   0.55944  0.73461  0.37500
E94   E   0.55944  0.76539  0.87500
E95   E   0.57353  0.12500  0.67647
E96   E   0.57353  0.37500  0.17647
E97   E   0.57353  0.37500  0.17647
E98   E   0.57353  0.62500  0.32353
E99   E   0.57353  0.87500  0.82353
E100  E   0.62500  0.01539  0.69056
E101  E   0.62500  0.05944  0.76539
E102  E   0.62500  0.17647  0.07353
E103  E   0.62500  0.17647  0.07353
E104  E   0.62500  0.32353  0.57353
E105  E   0.62500  0.44056  0.26539
E106  E   0.62500  0.48461  0.19056
E107  E   0.62500  0.51539  0.30944
E108  E   0.62500  0.55944  0.23461
E109  E   0.62500  0.67647  0.92647
E110  E   0.62500  0.82353  0.42647
E111  E   0.62500  0.94056  0.73461
E112  E   0.62500  0.98461  0.80944
E113  E   0.67647  0.07353  0.87500
E114  E   0.67647  0.07353  0.87500
E115  E   0.67647  0.42647  0.37500
E116  E   0.67647  0.57353  0.12500
E117  E   0.67647  0.92647  0.62500
E118  E   0.69056  0.12500  0.98461
E119  E   0.69056  0.37500  0.48461
E120  E   0.69056  0.62500  0.01539
E121  E   0.69056  0.87500  0.51539
E122  E   0.73461  0.12500  0.05944
E123  E   0.73461  0.37500  0.55944
E124  E   0.73461  0.62500  0.94056
E125  E   0.73461  0.87500  0.44056
E126  E   0.76539  0.12500  0.94056
E127  E   0.76539  0.37500  0.44056
E128  E   0.76539  0.62500  0.05944
E129  E   0.76539  0.87500  0.55944
E130  E   0.80944  0.12500  0.01539
E131  E   0.80944  0.37500  0.51539
E132  E   0.80944  0.62500  0.98461
E133  E   0.80944  0.87500  0.48461
E134  E   0.82353  0.07353  0.12500
E135  E   0.82353  0.07353  0.12500
E136  E   0.82353  0.42647  0.62500
E137  E   0.82353  0.57353  0.87500
E138  E   0.82353  0.92647  0.37500
E139  E   0.87500  0.01539  0.30944
E140  E   0.87500  0.05944  0.23461
E141  E   0.87500  0.17647  0.92647
E142  E   0.87500  0.17647  0.92647
E143  E   0.87500  0.32353  0.42647
E144  E   0.87500  0.44056  0.73461
E145  E   0.87500  0.48461  0.80944
E146  E   0.87500  0.51539  0.69056
E147  E   0.87500  0.55944  0.76539
E148  E   0.87500  0.67647  0.07353
E149  E   0.87500  0.67647  0.07353
E150  E   0.87500  0.82353  0.57353
E151  E   0.87500  0.94056  0.26539
E152  E   0.87500  0.98461  0.19056
E153  E   0.92647  0.12500  0.32353
E154  E   0.92647  0.37500  0.82353
E155  E   0.92647  0.62500  0.67647
E156  E   0.92647  0.87500  0.17647
E157  E   0.92647  0.87500  0.17647
E158  E   0.94056  0.23461  0.37500
E159  E   0.94056  0.26539  0.87500
E160  E   0.94056  0.73461  0.62500
E161  E   0.94056  0.76539  0.12500
E162  E   0.98461  0.19056  0.87500
E163  E   0.98461  0.30944  0.37500
E164  E   0.98461  0.69056  0.12500
E165  E   0.98461  0.80944  0.62500
loop_
