data_lcv-f_I4132  hall_number: 510, V_con: 3
_audit_creation_date              2025-03-05
_audit_creation_method            'MOFbuilder_1.0'
_symmetry_space_group_name_H-M    'P1'
_symmetry_Int_Tables_number       1
_symmetry_cell_setting            triclinic
loop_
_symmetry_equiv_pos_as_xyz
  x,y,z
_cell_length_a                    73.91
_cell_length_b                    73.91
_cell_length_c                    73.91
_cell_angle_alpha                 90.0
_cell_angle_beta                  90.0
_cell_angle_gamma                 90.0
loop_
_atom_site_label
_atom_site_type_symbol
_atom_site_fract_x
_atom_site_fract_y
_atom_site_fract_z
V1    V   0.02571  0.18742  0.18742
V2    V   0.02571  0.81258  0.31258
V3    V   0.06258  0.06258  0.22429
V4    V   0.06258  0.22429  0.06258
V5    V   0.06258  0.77571  0.43742
V6    V   0.06258  0.93742  0.27571
V7    V   0.18742  0.02571  0.18742
V8    V   0.18742  0.18742  0.02571
V9    V   0.18742  0.81258  0.47429
V10   V   0.18742  0.97429  0.31258
V11   V   0.22429  0.06258  0.06258
V12   V   0.22429  0.93742  0.43742
V13   V   0.27571  0.06258  0.93742
V14   V   0.27571  0.93742  0.56258
V15   V   0.31258  0.02571  0.81258
V16   V   0.31258  0.18742  0.97429
V17   V   0.31258  0.81258  0.52571
V18   V   0.31258  0.97429  0.68742
V19   V   0.43742  0.06258  0.77571
V20   V   0.43742  0.22429  0.93742
V21   V   0.43742  0.77571  0.56258
V22   V   0.43742  0.93742  0.72429
V23   V   0.47429  0.18742  0.81258
V24   V   0.47429  0.81258  0.68742
V25   V   0.52571  0.31258  0.81258
V26   V   0.52571  0.68742  0.68742
V27   V   0.56258  0.27571  0.93742
V28   V   0.56258  0.43742  0.77571
V29   V   0.56258  0.56258  0.72429
V30   V   0.56258  0.72429  0.56258
V31   V   0.68742  0.31258  0.97429
V32   V   0.68742  0.47429  0.81258
V33   V   0.68742  0.52571  0.68742
V34   V   0.68742  0.68742  0.52571
V35   V   0.72429  0.43742  0.93742
V36   V   0.72429  0.56258  0.56258
V37   V   0.77571  0.43742  0.06258
V38   V   0.77571  0.56258  0.43742
V39   V   0.81258  0.31258  0.02571
V40   V   0.81258  0.47429  0.18742
V41   V   0.81258  0.52571  0.31258
V42   V   0.81258  0.68742  0.47429
V43   V   0.93742  0.27571  0.06258
V44   V   0.93742  0.43742  0.22429
V45   V   0.93742  0.56258  0.27571
V46   V   0.93742  0.72429  0.43742
V47   V   0.97429  0.31258  0.18742
V48   V   0.97429  0.68742  0.31258
E1    E   0.00000  0.25000  0.06258
E2    E   0.00000  0.25000  0.18742
E3    E   0.00000  0.75000  0.31258
E4    E   0.00000  0.75000  0.43742
E5    E   0.04414  0.12500  0.20586
E6    E   0.04414  0.20586  0.12500
E7    E   0.04414  0.79414  0.37500
E8    E   0.04414  0.87500  0.29414
E9    E   0.04414  0.12500  0.20586
E10   E   0.04414  0.20586  0.12500
E11   E   0.04414  0.79414  0.37500
E12   E   0.04414  0.87500  0.29414
E13   E   0.06258  0.00000  0.25000
E14   E   0.12500  0.04414  0.20586
E15   E   0.12500  0.04414  0.20586
E16   E   0.12500  0.20586  0.04414
E17   E   0.12500  0.20586  0.04414
E18   E   0.12500  0.79414  0.45586
E19   E   0.12500  0.79414  0.45586
E20   E   0.12500  0.95586  0.29414
E21   E   0.12500  0.95586  0.29414
E22   E   0.18742  0.00000  0.25000
E23   E   0.20586  0.04414  0.12500
E24   E   0.20586  0.04414  0.12500
E25   E   0.20586  0.12500  0.04414
E26   E   0.20586  0.12500  0.04414
E27   E   0.20586  0.87500  0.45586
E28   E   0.20586  0.95586  0.37500
E29   E   0.20586  0.95586  0.37500
E30   E   0.25000  0.06258  0.00000
E31   E   0.25000  0.18742  0.00000
E32   E   0.25000  0.81258  0.50000
E33   E   0.25000  0.93742  0.50000
E34   E   0.29414  0.04414  0.87500
E35   E   0.29414  0.04414  0.87500
E36   E   0.29414  0.12500  0.95586
E37   E   0.29414  0.12500  0.95586
E38   E   0.29414  0.87500  0.54414
E39   E   0.29414  0.87500  0.54414
E40   E   0.29414  0.95586  0.62500
E41   E   0.29414  0.95586  0.62500
E42   E   0.31258  0.00000  0.75000
E43   E   0.37500  0.04414  0.79414
E44   E   0.37500  0.04414  0.79414
E45   E   0.37500  0.20586  0.95586
E46   E   0.37500  0.20586  0.95586
E47   E   0.37500  0.79414  0.54414
E48   E   0.37500  0.79414  0.54414
E49   E   0.37500  0.95586  0.70586
E50   E   0.37500  0.95586  0.70586
E51   E   0.43742  0.00000  0.75000
E52   E   0.45586  0.12500  0.79414
E53   E   0.45586  0.12500  0.79414
E54   E   0.45586  0.20586  0.87500
E55   E   0.45586  0.79414  0.62500
E56   E   0.45586  0.79414  0.62500
E57   E   0.45586  0.87500  0.70586
E58   E   0.45586  0.87500  0.70586
E59   E   0.50000  0.25000  0.81258
E60   E   0.50000  0.25000  0.93742
E61   E   0.50000  0.75000  0.56258
E62   E   0.50000  0.75000  0.68742
E63   E   0.54414  0.29414  0.87500
E64   E   0.54414  0.37500  0.79414
E65   E   0.54414  0.62500  0.70586
E66   E   0.54414  0.70586  0.62500
E67   E   0.54414  0.29414  0.87500
E68   E   0.54414  0.37500  0.79414
E69   E   0.54414  0.62500  0.70586
E70   E   0.54414  0.70586  0.62500
E71   E   0.56258  0.50000  0.75000
E72   E   0.62500  0.29414  0.95586
E73   E   0.62500  0.29414  0.95586
E74   E   0.62500  0.45586  0.79414
E75   E   0.62500  0.45586  0.79414
E76   E   0.62500  0.54414  0.70586
E77   E   0.62500  0.54414  0.70586
E78   E   0.62500  0.70586  0.54414
E79   E   0.62500  0.70586  0.54414
E80   E   0.68742  0.50000  0.75000
E81   E   0.70586  0.37500  0.95586
E82   E   0.70586  0.45586  0.87500
E83   E   0.70586  0.54414  0.62500
E84   E   0.70586  0.62500  0.54414
E85   E   0.70586  0.37500  0.95586
E86   E   0.70586  0.45586  0.87500
E87   E   0.70586  0.54414  0.62500
E88   E   0.70586  0.62500  0.54414
E89   E   0.75000  0.31258  0.00000
E90   E   0.75000  0.43742  0.00000
E91   E   0.75000  0.56258  0.50000
E92   E   0.75000  0.68742  0.50000
E93   E   0.79414  0.37500  0.04414
E94   E   0.79414  0.45586  0.12500
E95   E   0.79414  0.54414  0.37500
E96   E   0.79414  0.62500  0.45586
E97   E   0.79414  0.37500  0.04414
E98   E   0.79414  0.45586  0.12500
E99   E   0.79414  0.54414  0.37500
E100  E   0.79414  0.62500  0.45586
E101  E   0.81258  0.50000  0.25000
E102  E   0.87500  0.29414  0.04414
E103  E   0.87500  0.29414  0.04414
E104  E   0.87500  0.45586  0.20586
E105  E   0.87500  0.54414  0.29414
E106  E   0.87500  0.54414  0.29414
E107  E   0.87500  0.70586  0.45586
E108  E   0.87500  0.70586  0.45586
E109  E   0.93742  0.50000  0.25000
E110  E   0.95586  0.29414  0.12500
E111  E   0.95586  0.37500  0.20586
E112  E   0.95586  0.62500  0.29414
E113  E   0.95586  0.70586  0.37500
E114  E   0.95586  0.29414  0.12500
E115  E   0.95586  0.37500  0.20586
E116  E   0.95586  0.62500  0.29414
E117  E   0.95586  0.70586  0.37500
loop_
