data_lcy-e_P4132  hall_number: 509, V_con: 6
_audit_creation_date              2025-03-05
_audit_creation_method            'MOFbuilder_1.0'
_symmetry_space_group_name_H-M    'P1'
_symmetry_Int_Tables_number       1
_symmetry_cell_setting            triclinic
loop_
_symmetry_equiv_pos_as_xyz
  x,y,z
_cell_length_a                    23.7997
_cell_length_b                    23.7997
_cell_length_c                    23.7997
_cell_angle_alpha                 90.0
_cell_angle_beta                  90.0
_cell_angle_gamma                 90.0
loop_
_atom_site_label
_atom_site_type_symbol
_atom_site_fract_x
_atom_site_fract_y
_atom_site_fract_z
V1    V   0.04654  0.87500  0.70346
V2    V   0.04654  0.87500  0.70346
V3    V   0.12500  0.20346  0.45346
V4    V   0.12500  0.20346  0.45346
V5    V   0.20346  0.45346  0.12500
V6    V   0.20346  0.45346  0.12500
V7    V   0.29654  0.54654  0.62500
V8    V   0.37500  0.79654  0.95346
V9    V   0.45346  0.12500  0.20346
V10   V   0.45346  0.12500  0.20346
V11   V   0.54654  0.62500  0.29654
V12   V   0.62500  0.29654  0.54654
V13   V   0.70346  0.04654  0.87500
V14   V   0.70346  0.04654  0.87500
V15   V   0.79654  0.95346  0.37500
V16   V   0.87500  0.70346  0.04654
V17   V   0.87500  0.70346  0.04654
V18   V   0.95346  0.37500  0.79654
E1    E   0.03923  0.28923  0.62500
E2    E   0.03923  0.57846  0.08577
E3    E   0.03923  0.28923  0.62500
E4    E   0.07846  0.41423  0.96077
E5    E   0.08577  0.03923  0.57846
E6    E   0.12500  0.46077  0.71077
E7    E   0.16423  0.32846  0.28923
E8    E   0.17154  0.71077  0.66423
E9    E   0.21077  0.37500  0.53923
E10   E   0.21077  0.83577  0.82846
E11   E   0.28923  0.62500  0.03923
E12   E   0.28923  0.16423  0.32846
E13   E   0.28923  0.62500  0.03923
E14   E   0.32846  0.28923  0.16423
E15   E   0.33577  0.67154  0.78923
E16   E   0.37500  0.53923  0.21077
E17   E   0.41423  0.96077  0.07846
E18   E   0.42154  0.58577  0.46077
E19   E   0.46077  0.42154  0.58577
E20   E   0.46077  0.71077  0.12500
E21   E   0.53923  0.21077  0.37500
E22   E   0.53923  0.92154  0.91423
E23   E   0.57846  0.08577  0.03923
E24   E   0.58577  0.46077  0.42154
E25   E   0.62500  0.03923  0.28923
E26   E   0.62500  0.03923  0.28923
E27   E   0.66423  0.17154  0.71077
E28   E   0.67154  0.78923  0.33577
E29   E   0.71077  0.12500  0.46077
E30   E   0.71077  0.66423  0.17154
E31   E   0.78923  0.33577  0.67154
E32   E   0.78923  0.87500  0.96077
E33   E   0.82846  0.21077  0.83577
E34   E   0.83577  0.82846  0.21077
E35   E   0.87500  0.96077  0.78923
E36   E   0.91423  0.53923  0.92154
E37   E   0.92154  0.91423  0.53923
E38   E   0.96077  0.07846  0.41423
E39   E   0.96077  0.78923  0.87500
loop_
