data_los_P63/mmc  hall_number: 488, V_con: 4, EC_con: 4
_audit_creation_date              2025-03-05
_audit_creation_method            'MOFbuilder_1.0'
_symmetry_space_group_name_H-M    'P1'
_symmetry_Int_Tables_number       1
_symmetry_cell_setting            triclinic
loop_
_symmetry_equiv_pos_as_xyz
  x,y,z
_cell_length_a                    40.0891
_cell_length_b                    40.0891
_cell_length_c                    32.5135
_cell_angle_alpha                 90.0
_cell_angle_beta                  90.0
_cell_angle_gamma                 120.0
loop_
_atom_site_label
_atom_site_type_symbol
_atom_site_fract_x
_atom_site_fract_y
_atom_site_fract_z
V1    V   0.00000  0.24944  0.00000
V2    V   0.00000  0.24944  0.50000
V3    V   0.00000  0.75056  0.00000
V4    V   0.00000  0.75056  0.50000
V5    V   0.24944  0.00000  0.00000
V6    V   0.24944  0.00000  0.50000
V7    V   0.24944  0.24944  0.00000
V8    V   0.24944  0.24944  0.50000
V9    V   0.75056  0.00000  0.00000
V10   V   0.75056  0.00000  0.50000
V11   V   0.75056  0.75056  0.00000
V12   V   0.75056  0.75056  0.50000
EC1    EC   0.08389  0.41722  0.25000
EC2    EC   0.08389  0.66667  0.25000
EC3    EC   0.33333  0.41722  0.25000
EC4    EC   0.33333  0.91611  0.25000
EC5    EC   0.41722  0.08389  0.75000
EC6    EC   0.41722  0.33333  0.75000
EC7    EC   0.58278  0.66667  0.25000
EC8    EC   0.58278  0.91611  0.25000
EC9    EC   0.66667  0.08389  0.75000
EC10   EC   0.66667  0.58278  0.75000
EC11   EC   0.91611  0.33333  0.75000
EC12   EC   0.91611  0.58278  0.75000
E1    E   0.04194  0.33333  0.12500
E2    E   0.04194  0.33333  0.37500
E3    E   0.04194  0.70861  0.12500
E4    E   0.04194  0.70861  0.37500
E5    E   0.08389  0.54194  0.25000
E6    E   0.08389  0.54195  0.25000
E7    E   0.12472  0.24944  0.00000
E8    E   0.12472  0.24944  0.50000
E9    E   0.12472  0.87528  0.00000
E10   E   0.12472  0.87528  0.50000
E11   E   0.20861  0.41722  0.25000
E12   E   0.20861  0.79139  0.25000
E13   E   0.24944  0.12472  0.00000
E14   E   0.24944  0.12472  0.50000
E15   E   0.29139  0.33333  0.12500
E16   E   0.29139  0.33333  0.37500
E17   E   0.29139  0.95806  0.12500
E18   E   0.29139  0.95806  0.37500
E19   E   0.33333  0.04194  0.62500
E20   E   0.33333  0.04194  0.87500
E21   E   0.33333  0.29139  0.62500
E22   E   0.33333  0.29139  0.87500
E23   E   0.41722  0.20861  0.75000
E24   E   0.45805  0.54194  0.25000
E25   E   0.45805  0.91611  0.25000
E26   E   0.45806  0.54195  0.25000
E27   E   0.45806  0.91611  0.25000
E28   E   0.54194  0.08389  0.75000
E29   E   0.54194  0.45805  0.75000
E30   E   0.54195  0.08389  0.75000
E31   E   0.54195  0.45806  0.75000
E32   E   0.58278  0.79139  0.25000
E33   E   0.66667  0.70861  0.12500
E34   E   0.66667  0.70861  0.37500
E35   E   0.66667  0.95806  0.12500
E36   E   0.66667  0.95806  0.37500
E37   E   0.70861  0.04194  0.62500
E38   E   0.70861  0.04194  0.87500
E39   E   0.70861  0.66667  0.62500
E40   E   0.70861  0.66667  0.87500
E41   E   0.75056  0.87528  0.00000
E42   E   0.75056  0.87528  0.50000
E43   E   0.79139  0.20861  0.75000
E44   E   0.79139  0.58278  0.75000
E45   E   0.87528  0.12472  0.00000
E46   E   0.87528  0.12472  0.50000
E47   E   0.87528  0.75056  0.00000
E48   E   0.87528  0.75056  0.50000
E49   E   0.91611  0.45805  0.75000
E50   E   0.91611  0.45806  0.75000
E51   E   0.95806  0.29139  0.62500
E52   E   0.95806  0.29139  0.87500
E53   E   0.95806  0.66667  0.62500
E54   E   0.95806  0.66667  0.87500
loop_
