data_mjt_Im-3m  hall_number: 529, V_con: 12, EC_con: 11
_audit_creation_date              2025-03-05
_audit_creation_method            'MOFbuilder_1.0'
_symmetry_space_group_name_H-M    'P1'
_symmetry_Int_Tables_number       1
_symmetry_cell_setting            triclinic
loop_
_symmetry_equiv_pos_as_xyz
  x,y,z
_cell_length_a                    28.2843
_cell_length_b                    28.2843
_cell_length_c                    28.2843
_cell_angle_alpha                 90.0
_cell_angle_beta                  90.0
_cell_angle_gamma                 90.0
loop_
_atom_site_label
_atom_site_type_symbol
_atom_site_fract_x
_atom_site_fract_y
_atom_site_fract_z
V1    V   0.00000  0.00000  0.50000
V2    V   0.00000  0.50000  0.00000
V3    V   0.00000  0.50000  0.50000
V4    V   0.50000  0.00000  0.00000
V5    V   0.50000  0.00000  0.50000
V6    V   0.50000  0.50000  0.00000
EC1    EC   0.00000  0.25000  0.25000
EC2    EC   0.00000  0.25000  0.75000
EC3    EC   0.00000  0.75000  0.25000
EC4    EC   0.00000  0.75000  0.75000
EC5    EC   0.25000  0.00000  0.25000
EC6    EC   0.25000  0.00000  0.75000
EC7    EC   0.25000  0.25000  0.00000
EC8    EC   0.25000  0.25000  0.50000
EC9    EC   0.25000  0.50000  0.25000
EC10   EC   0.25000  0.50000  0.75000
EC11   EC   0.25000  0.75000  0.00000
EC12   EC   0.25000  0.75000  0.50000
EC13   EC   0.50000  0.25000  0.25000
EC14   EC   0.50000  0.25000  0.75000
EC15   EC   0.50000  0.75000  0.25000
EC16   EC   0.50000  0.75000  0.75000
EC17   EC   0.75000  0.00000  0.25000
EC18   EC   0.75000  0.00000  0.75000
EC19   EC   0.75000  0.25000  0.00000
EC20   EC   0.75000  0.25000  0.50000
EC21   EC   0.75000  0.50000  0.25000
EC22   EC   0.75000  0.50000  0.75000
EC23   EC   0.75000  0.75000  0.00000
EC24   EC   0.75000  0.75000  0.50000
E1    E   0.00000  0.12500  0.37500
E2    E   0.00000  0.12500  0.62500
E3    E   0.00000  0.37500  0.12500
E4    E   0.00000  0.37500  0.37500
E5    E   0.00000  0.37500  0.62500
E6    E   0.00000  0.37500  0.87500
E7    E   0.00000  0.62500  0.12500
E8    E   0.00000  0.62500  0.37500
E9    E   0.00000  0.62500  0.62500
E10   E   0.00000  0.62500  0.87500
E11   E   0.00000  0.87500  0.37500
E12   E   0.00000  0.87500  0.62500
E13   E   0.12500  0.00000  0.37500
E14   E   0.12500  0.00000  0.62500
E15   E   0.12500  0.12500  0.25000
E16   E   0.12500  0.12500  0.50000
E17   E   0.12500  0.12500  0.75000
E18   E   0.12500  0.25000  0.12500
E19   E   0.12500  0.25000  0.37500
E20   E   0.12500  0.25000  0.62500
E21   E   0.12500  0.25000  0.87500
E22   E   0.12500  0.37500  0.00000
E23   E   0.12500  0.37500  0.25000
E24   E   0.12500  0.37500  0.50000
E25   E   0.12500  0.37500  0.75000
E26   E   0.12500  0.50000  0.12500
E27   E   0.12500  0.50000  0.37500
E28   E   0.12500  0.50000  0.62500
E29   E   0.12500  0.50000  0.87500
E30   E   0.12500  0.62500  0.00000
E31   E   0.12500  0.62500  0.25000
E32   E   0.12500  0.62500  0.50000
E33   E   0.12500  0.62500  0.75000
E34   E   0.12500  0.75000  0.12500
E35   E   0.12500  0.75000  0.37500
E36   E   0.12500  0.75000  0.62500
E37   E   0.12500  0.75000  0.87500
E38   E   0.12500  0.87500  0.25000
E39   E   0.12500  0.87500  0.50000
E40   E   0.12500  0.87500  0.75000
E41   E   0.25000  0.12500  0.12500
E42   E   0.25000  0.12500  0.37500
E43   E   0.25000  0.12500  0.62500
E44   E   0.25000  0.12500  0.87500
E45   E   0.25000  0.37500  0.12500
E46   E   0.25000  0.37500  0.37500
E47   E   0.25000  0.37500  0.62500
E48   E   0.25000  0.37500  0.87500
E49   E   0.25000  0.62500  0.12500
E50   E   0.25000  0.62500  0.37500
E51   E   0.25000  0.62500  0.62500
E52   E   0.25000  0.62500  0.87500
E53   E   0.25000  0.87500  0.12500
E54   E   0.25000  0.87500  0.37500
E55   E   0.25000  0.87500  0.62500
E56   E   0.25000  0.87500  0.87500
E57   E   0.37500  0.00000  0.12500
E58   E   0.37500  0.00000  0.37500
E59   E   0.37500  0.00000  0.62500
E60   E   0.37500  0.00000  0.87500
E61   E   0.37500  0.12500  0.00000
E62   E   0.37500  0.12500  0.25000
E63   E   0.37500  0.12500  0.50000
E64   E   0.37500  0.12500  0.75000
E65   E   0.37500  0.25000  0.12500
E66   E   0.37500  0.25000  0.37500
E67   E   0.37500  0.25000  0.62500
E68   E   0.37500  0.25000  0.87500
E69   E   0.37500  0.37500  0.00000
E70   E   0.37500  0.37500  0.25000
E71   E   0.37500  0.37500  0.75000
E72   E   0.37500  0.50000  0.12500
E73   E   0.37500  0.50000  0.87500
E74   E   0.37500  0.62500  0.00000
E75   E   0.37500  0.62500  0.25000
E76   E   0.37500  0.62500  0.75000
E77   E   0.37500  0.75000  0.12500
E78   E   0.37500  0.75000  0.37500
E79   E   0.37500  0.75000  0.62500
E80   E   0.37500  0.75000  0.87500
E81   E   0.37500  0.87500  0.00000
E82   E   0.37500  0.87500  0.25000
E83   E   0.37500  0.87500  0.50000
E84   E   0.37500  0.87500  0.75000
E85   E   0.50000  0.12500  0.12500
E86   E   0.50000  0.12500  0.37500
E87   E   0.50000  0.12500  0.62500
E88   E   0.50000  0.12500  0.87500
E89   E   0.50000  0.37500  0.12500
E90   E   0.50000  0.37500  0.87500
E91   E   0.50000  0.62500  0.12500
E92   E   0.50000  0.62500  0.87500
E93   E   0.50000  0.87500  0.12500
E94   E   0.50000  0.87500  0.37500
E95   E   0.50000  0.87500  0.62500
E96   E   0.50000  0.87500  0.87500
E97   E   0.62500  0.00000  0.12500
E98   E   0.62500  0.00000  0.37500
E99   E   0.62500  0.00000  0.62500
E100  E   0.62500  0.00000  0.87500
E101  E   0.62500  0.12500  0.00000
E102  E   0.62500  0.12500  0.25000
E103  E   0.62500  0.12500  0.50000
E104  E   0.62500  0.12500  0.75000
E105  E   0.62500  0.25000  0.12500
E106  E   0.62500  0.25000  0.37500
E107  E   0.62500  0.25000  0.62500
E108  E   0.62500  0.25000  0.87500
E109  E   0.62500  0.37500  0.00000
E110  E   0.62500  0.37500  0.25000
E111  E   0.62500  0.37500  0.75000
E112  E   0.62500  0.50000  0.12500
E113  E   0.62500  0.50000  0.87500
E114  E   0.62500  0.62500  0.00000
E115  E   0.62500  0.62500  0.25000
E116  E   0.62500  0.62500  0.75000
E117  E   0.62500  0.75000  0.12500
E118  E   0.62500  0.75000  0.37500
E119  E   0.62500  0.75000  0.62500
E120  E   0.62500  0.75000  0.87500
E121  E   0.62500  0.87500  0.00000
E122  E   0.62500  0.87500  0.25000
E123  E   0.62500  0.87500  0.50000
E124  E   0.62500  0.87500  0.75000
E125  E   0.75000  0.12500  0.12500
E126  E   0.75000  0.12500  0.37500
E127  E   0.75000  0.12500  0.62500
E128  E   0.75000  0.12500  0.87500
E129  E   0.75000  0.37500  0.12500
E130  E   0.75000  0.37500  0.37500
E131  E   0.75000  0.37500  0.62500
E132  E   0.75000  0.37500  0.87500
E133  E   0.75000  0.62500  0.12500
E134  E   0.75000  0.62500  0.37500
E135  E   0.75000  0.62500  0.62500
E136  E   0.75000  0.62500  0.87500
E137  E   0.75000  0.87500  0.12500
E138  E   0.75000  0.87500  0.37500
E139  E   0.75000  0.87500  0.62500
E140  E   0.75000  0.87500  0.87500
E141  E   0.87500  0.00000  0.37500
E142  E   0.87500  0.00000  0.62500
E143  E   0.87500  0.12500  0.25000
E144  E   0.87500  0.12500  0.50000
E145  E   0.87500  0.12500  0.75000
E146  E   0.87500  0.25000  0.12500
E147  E   0.87500  0.25000  0.37500
E148  E   0.87500  0.25000  0.62500
E149  E   0.87500  0.25000  0.87500
E150  E   0.87500  0.37500  0.00000
E151  E   0.87500  0.37500  0.25000
E152  E   0.87500  0.37500  0.50000
E153  E   0.87500  0.37500  0.75000
E154  E   0.87500  0.50000  0.12500
E155  E   0.87500  0.50000  0.37500
E156  E   0.87500  0.50000  0.62500
E157  E   0.87500  0.50000  0.87500
E158  E   0.87500  0.62500  0.00000
E159  E   0.87500  0.62500  0.25000
E160  E   0.87500  0.62500  0.50000
E161  E   0.87500  0.62500  0.75000
E162  E   0.87500  0.75000  0.12500
E163  E   0.87500  0.75000  0.37500
E164  E   0.87500  0.75000  0.62500
E165  E   0.87500  0.75000  0.87500
E166  E   0.87500  0.87500  0.25000
E167  E   0.87500  0.87500  0.50000
E168  E   0.87500  0.87500  0.75000
loop_
