data_mjz_P4/mmm  hall_number: 400, V_con: 5, EC_con: 5
_audit_creation_date              2025-03-05
_audit_creation_method            'MOFbuilder_1.0'
_symmetry_space_group_name_H-M    'P1'
_symmetry_Int_Tables_number       1
_symmetry_cell_setting            triclinic
loop_
_symmetry_equiv_pos_as_xyz
  x,y,z
_cell_length_a                    34.1421
_cell_length_b                    34.1421
_cell_length_c                    34.142
_cell_angle_alpha                 90.0
_cell_angle_beta                  90.0
_cell_angle_gamma                 90.0
loop_
_atom_site_label
_atom_site_type_symbol
_atom_site_fract_x
_atom_site_fract_y
_atom_site_fract_z
V1    V   0.00000  0.20711  0.35355
V2    V   0.00000  0.20711  0.64645
V3    V   0.00000  0.79289  0.35355
V4    V   0.00000  0.79289  0.64645
V5    V   0.20711  0.00000  0.35355
V6    V   0.20711  0.00000  0.64645
V7    V   0.79289  0.00000  0.35355
V8    V   0.79289  0.00000  0.64645
EC1    EC   0.14645  0.35355  0.14645
EC2    EC   0.14645  0.35355  0.85355
EC3    EC   0.14645  0.64645  0.14645
EC4    EC   0.14645  0.64645  0.85355
EC5    EC   0.35355  0.14645  0.14645
EC6    EC   0.35355  0.14645  0.85355
EC7    EC   0.35355  0.85355  0.14645
EC8    EC   0.35355  0.85355  0.85355
EC9    EC   0.64645  0.14645  0.14645
EC10   EC   0.64645  0.14645  0.85355
EC11   EC   0.64645  0.85355  0.14645
EC12   EC   0.64645  0.85355  0.85355
EC13   EC   0.85355  0.35355  0.14645
EC14   EC   0.85355  0.35355  0.85355
EC15   EC   0.85355  0.64645  0.14645
EC16   EC   0.85355  0.64645  0.85355
E1    E   0.00000  0.20711  0.50000
E2    E   0.00000  0.35355  0.14645
E3    E   0.00000  0.35355  0.85355
E4    E   0.00000  0.64645  0.14645
E5    E   0.00000  0.64645  0.85355
E6    E   0.00000  0.79289  0.50000
E7    E   0.07322  0.28033  0.25000
E8    E   0.07322  0.28033  0.75000
E9    E   0.07322  0.71967  0.25000
E10   E   0.07322  0.71967  0.75000
E11   E   0.10355  0.10355  0.35355
E12   E   0.10355  0.10355  0.64645
E13   E   0.10355  0.89645  0.35355
E14   E   0.10355  0.89645  0.64645
E15   E   0.14645  0.35355  0.00000
E16   E   0.14645  0.50000  0.14645
E17   E   0.14645  0.50000  0.85355
E18   E   0.14645  0.64645  0.00000
E19   E   0.20711  0.00000  0.50000
E20   E   0.25000  0.25000  0.14645
E21   E   0.25000  0.25000  0.85355
E22   E   0.25000  0.75000  0.14645
E23   E   0.25000  0.75000  0.85355
E24   E   0.28033  0.07322  0.25000
E25   E   0.28033  0.07322  0.75000
E26   E   0.28033  0.92678  0.25000
E27   E   0.28033  0.92678  0.75000
E28   E   0.35355  0.00000  0.14645
E29   E   0.35355  0.00000  0.85355
E30   E   0.35355  0.14645  0.00000
E31   E   0.35355  0.85355  0.00000
E32   E   0.50000  0.14645  0.14645
E33   E   0.50000  0.14645  0.85355
E34   E   0.50000  0.85355  0.14645
E35   E   0.50000  0.85355  0.85355
E36   E   0.64645  0.00000  0.14645
E37   E   0.64645  0.00000  0.85355
E38   E   0.64645  0.14645  0.00000
E39   E   0.64645  0.85355  0.00000
E40   E   0.71967  0.07322  0.25000
E41   E   0.71967  0.07322  0.75000
E42   E   0.71967  0.92678  0.25000
E43   E   0.71967  0.92678  0.75000
E44   E   0.75000  0.25000  0.14645
E45   E   0.75000  0.25000  0.85355
E46   E   0.75000  0.75000  0.14645
E47   E   0.75000  0.75000  0.85355
E48   E   0.79289  0.00000  0.50000
E49   E   0.85355  0.35355  0.00000
E50   E   0.85355  0.50000  0.14645
E51   E   0.85355  0.50000  0.85355
E52   E   0.85355  0.64645  0.00000
E53   E   0.89645  0.10355  0.35355
E54   E   0.89645  0.10355  0.64645
E55   E   0.89645  0.89645  0.35355
E56   E   0.89645  0.89645  0.64645
E57   E   0.92678  0.28033  0.25000
E58   E   0.92678  0.28033  0.75000
E59   E   0.92678  0.71967  0.25000
E60   E   0.92678  0.71967  0.75000
loop_
