data_mrc_Pnnm  hall_number: 275, V_con: 6, EC_con: 4
_audit_creation_date              2025-03-05
_audit_creation_method            'MOFbuilder_1.0'
_symmetry_space_group_name_H-M    'P1'
_symmetry_Int_Tables_number       1
_symmetry_cell_setting            triclinic
loop_
_symmetry_equiv_pos_as_xyz
  x,y,z
_cell_length_a                    20.0629
_cell_length_b                    23.555
_cell_length_c                    15.3285
_cell_angle_alpha                 90.0
_cell_angle_beta                  90.0
_cell_angle_gamma                 90.0
loop_
_atom_site_label
_atom_site_type_symbol
_atom_site_fract_x
_atom_site_fract_y
_atom_site_fract_z
V1    V   0.00000  0.00000  0.00000
V2    V   0.50000  0.50000  0.50000
EC1    EC   0.20961  0.38517  0.00000
EC2    EC   0.29039  0.88517  0.50000
EC3    EC   0.70961  0.11483  0.50000
EC4    EC   0.79039  0.61483  0.00000
E1    E   0.00000  0.50000  0.00000
E2    E   0.10480  0.19259  0.00000
E3    E   0.14520  0.94259  0.25000
E4    E   0.14520  0.94259  0.75000
E5    E   0.35480  0.44259  0.25000
E6    E   0.35480  0.44259  0.75000
E7    E   0.39520  0.69259  0.50000
E8    E   0.50000  0.00000  0.50000
E9    E   0.60480  0.30741  0.50000
E10   E   0.64520  0.55741  0.25000
E11   E   0.64520  0.55741  0.75000
E12   E   0.85480  0.05741  0.25000
E13   E   0.85480  0.05741  0.75000
E14   E   0.89520  0.80741  0.00000
loop_
