data_nat_I41/amd:2  hall_number: 427, V_con: 4, EC_con: 4
_audit_creation_date              2025-03-05
_audit_creation_method            'MOFbuilder_1.0'
_symmetry_space_group_name_H-M    'P1'
_symmetry_Int_Tables_number       1
_symmetry_cell_setting            triclinic
loop_
_symmetry_equiv_pos_as_xyz
  x,y,z
_cell_length_a                    44.0801
_cell_length_b                    44.0801
_cell_length_c                    21.2154
_cell_angle_alpha                 90.0
_cell_angle_beta                  90.0
_cell_angle_gamma                 90.0
loop_
_atom_site_label
_atom_site_type_symbol
_atom_site_fract_x
_atom_site_fract_y
_atom_site_fract_z
V1    V   0.00000  0.11343  0.99863
V2    V   0.00000  0.38657  0.99863
V3    V   0.00000  0.61343  0.00137
V4    V   0.00000  0.88657  0.00137
V5    V   0.13657  0.25000  0.75137
V6    V   0.13657  0.75000  0.24863
V7    V   0.36343  0.25000  0.74863
V8    V   0.36343  0.75000  0.25137
V9    V   0.50000  0.11343  0.50137
V10   V   0.50000  0.38657  0.50137
V11   V   0.50000  0.61343  0.49863
V12   V   0.50000  0.88657  0.49863
V13   V   0.63657  0.25000  0.74863
V14   V   0.63657  0.75000  0.25137
V15   V   0.86343  0.25000  0.75137
V16   V   0.86343  0.75000  0.24863
EC1    EC   0.00000  0.25000  0.37500
EC2    EC   0.00000  0.75000  0.62500
EC3    EC   0.50000  0.25000  0.12500
EC4    EC   0.50000  0.75000  0.87500
E1    E   0.00000  0.00000  0.00000
E2    E   0.00000  0.18171  0.18682
E3    E   0.00000  0.31829  0.18682
E4    E   0.00000  0.50000  0.00000
E5    E   0.00000  0.68171  0.81318
E6    E   0.00000  0.81829  0.81318
E7    E   0.06829  0.18171  0.87500
E8    E   0.06829  0.31829  0.87500
E9    E   0.06829  0.68171  0.12500
E10   E   0.06829  0.81829  0.12500
E11   E   0.06829  0.25000  0.56318
E12   E   0.06829  0.75000  0.43682
E13   E   0.06829  0.18171  0.87500
E14   E   0.06829  0.31829  0.87500
E15   E   0.06829  0.68171  0.12500
E16   E   0.06829  0.81829  0.12500
E17   E   0.25000  0.25000  0.75000
E18   E   0.25000  0.75000  0.25000
E19   E   0.43171  0.18171  0.62500
E20   E   0.43171  0.31829  0.62500
E21   E   0.43171  0.68171  0.37500
E22   E   0.43171  0.81829  0.37500
E23   E   0.43171  0.18171  0.62500
E24   E   0.43171  0.25000  0.93682
E25   E   0.43171  0.31829  0.62500
E26   E   0.43171  0.68171  0.37500
E27   E   0.43171  0.75000  0.06318
E28   E   0.43171  0.81829  0.37500
E29   E   0.50000  0.00000  0.50000
E30   E   0.50000  0.18171  0.31318
E31   E   0.50000  0.31829  0.31318
E32   E   0.50000  0.50000  0.50000
E33   E   0.50000  0.68171  0.68682
E34   E   0.50000  0.81829  0.68682
E35   E   0.56829  0.18171  0.62500
E36   E   0.56829  0.18171  0.62500
E37   E   0.56829  0.25000  0.93682
E38   E   0.56829  0.31829  0.62500
E39   E   0.56829  0.31829  0.62500
E40   E   0.56829  0.68171  0.37500
E41   E   0.56829  0.75000  0.06318
E42   E   0.56829  0.81829  0.37500
E43   E   0.75000  0.25000  0.75000
E44   E   0.75000  0.75000  0.25000
E45   E   0.93171  0.18171  0.87500
E46   E   0.93171  0.18171  0.87500
E47   E   0.93171  0.25000  0.56318
E48   E   0.93171  0.31829  0.87500
E49   E   0.93171  0.31829  0.87500
E50   E   0.93171  0.68171  0.12500
E51   E   0.93171  0.75000  0.43682
E52   E   0.93171  0.81829  0.12500
loop_
