data_nof_Cccm  hall_number: 313, V_con: 3, EC_con: 3
_audit_creation_date              2025-03-05
_audit_creation_method            'MOFbuilder_1.0'
_symmetry_space_group_name_H-M    'P1'
_symmetry_Int_Tables_number       1
_symmetry_cell_setting            triclinic
loop_
_symmetry_equiv_pos_as_xyz
  x,y,z
_cell_length_a                    49.1256
_cell_length_b                    37.857
_cell_length_c                    28.7943
_cell_angle_alpha                 90.0
_cell_angle_beta                  90.0
_cell_angle_gamma                 90.0
loop_
_atom_site_label
_atom_site_type_symbol
_atom_site_fract_x
_atom_site_fract_y
_atom_site_fract_z
V1    V   0.18828  0.14498  0.50000
V2    V   0.18828  0.85502  0.00000
V3    V   0.31172  0.35502  0.50000
V4    V   0.31172  0.64498  0.00000
V5    V   0.68828  0.35502  0.00000
V6    V   0.68828  0.64498  0.50000
V7    V   0.81172  0.14498  0.00000
V8    V   0.81172  0.85502  0.50000
EC1    EC   0.10178  0.00000  0.25000
EC2    EC   0.10178  0.00000  0.75000
EC3    EC   0.39822  0.50000  0.25000
EC4    EC   0.39822  0.50000  0.75000
EC5    EC   0.60178  0.50000  0.25000
EC6    EC   0.60178  0.50000  0.75000
EC7    EC   0.89822  0.00000  0.25000
EC8    EC   0.89822  0.00000  0.75000
E1    E   0.00000  0.00000  0.25000
E2    E   0.00000  0.00000  0.75000
E3    E   0.14503  0.07249  0.37500
E4    E   0.14503  0.07249  0.62500
E5    E   0.14503  0.92751  0.12500
E6    E   0.14503  0.92751  0.87500
E7    E   0.25000  0.25000  0.50000
E8    E   0.25000  0.75000  0.00000
E9    E   0.35497  0.42751  0.37500
E10   E   0.35497  0.42751  0.62500
E11   E   0.35497  0.57249  0.12500
E12   E   0.35497  0.57249  0.87500
E13   E   0.50000  0.50000  0.25000
E14   E   0.50000  0.50000  0.75000
E15   E   0.64503  0.42751  0.12500
E16   E   0.64503  0.42751  0.87500
E17   E   0.64503  0.57249  0.37500
E18   E   0.64503  0.57249  0.62500
E19   E   0.75000  0.25000  0.00000
E20   E   0.75000  0.75000  0.50000
E21   E   0.85497  0.07249  0.12500
E22   E   0.85497  0.07249  0.87500
E23   E   0.85497  0.92751  0.37500
E24   E   0.85497  0.92751  0.62500
loop_
