data_ntb_P42/nmc:2  hall_number: 421, V_con: 3, EC_con: 3
_audit_creation_date              2025-03-05
_audit_creation_method            'MOFbuilder_1.0'
_symmetry_space_group_name_H-M    'P1'
_symmetry_Int_Tables_number       1
_symmetry_cell_setting            triclinic
loop_
_symmetry_equiv_pos_as_xyz
  x,y,z
_cell_length_a                    44.1458
_cell_length_b                    44.1458
_cell_length_c                    34.6435
_cell_angle_alpha                 90.0
_cell_angle_beta                  90.0
_cell_angle_gamma                 90.0
loop_
_atom_site_label
_atom_site_type_symbol
_atom_site_fract_x
_atom_site_fract_y
_atom_site_fract_z
V1    V   0.13674  0.25000  0.37841
V2    V   0.25000  0.13674  0.87841
V3    V   0.25000  0.36326  0.87841
V4    V   0.36326  0.25000  0.37841
V5    V   0.63674  0.75000  0.62159
V6    V   0.75000  0.63674  0.12159
V7    V   0.75000  0.86326  0.12159
V8    V   0.86326  0.75000  0.62159
EC1    EC   0.01791  0.05714  0.37750
EC2    EC   0.01791  0.44286  0.37750
EC3    EC   0.05714  0.01791  0.87750
EC4    EC   0.05714  0.48209  0.87750
EC5    EC   0.44286  0.01791  0.87750
EC6    EC   0.44286  0.48209  0.87750
EC7    EC   0.48209  0.05714  0.37750
EC8    EC   0.48209  0.44286  0.37750
EC9    EC   0.51791  0.55714  0.62250
EC10   EC   0.51791  0.94286  0.62250
EC11   EC   0.55714  0.51791  0.12250
EC12   EC   0.55714  0.98209  0.12250
EC13   EC   0.94286  0.51791  0.12250
EC14   EC   0.94286  0.98209  0.12250
EC15   EC   0.98209  0.55714  0.62250
EC16   EC   0.98209  0.94286  0.62250
E1    E   0.00000  0.00000  0.00000
E2    E   0.00000  0.00000  0.50000
E3    E   0.00000  0.50000  0.00000
E4    E   0.00000  0.50000  0.50000
E5    E   0.01962  0.51962  0.75000
E6    E   0.01962  0.98038  0.75000
E7    E   0.07733  0.15357  0.37796
E8    E   0.07733  0.34643  0.37796
E9    E   0.15357  0.07733  0.87796
E10   E   0.15357  0.42267  0.87796
E11   E   0.25000  0.25000  0.37841
E12   E   0.25000  0.25000  0.87841
E13   E   0.34643  0.07733  0.87796
E14   E   0.34643  0.42267  0.87796
E15   E   0.42267  0.15357  0.37796
E16   E   0.42267  0.34643  0.37796
E17   E   0.48038  0.51962  0.75000
E18   E   0.48038  0.98038  0.75000
E19   E   0.50000  0.00000  0.00000
E20   E   0.50000  0.00000  0.50000
E21   E   0.50000  0.50000  0.00000
E22   E   0.50000  0.50000  0.50000
E23   E   0.51962  0.01962  0.25000
E24   E   0.51962  0.48038  0.25000
E25   E   0.57733  0.65357  0.62204
E26   E   0.57733  0.84643  0.62204
E27   E   0.65357  0.57733  0.12204
E28   E   0.65357  0.92267  0.12204
E29   E   0.75000  0.75000  0.12159
E30   E   0.75000  0.75000  0.62159
E31   E   0.84643  0.57733  0.12204
E32   E   0.84643  0.92267  0.12204
E33   E   0.92267  0.65357  0.62204
E34   E   0.92267  0.84643  0.62204
E35   E   0.98038  0.01962  0.25000
E36   E   0.98038  0.48038  0.25000
loop_
