data_ocu-e_Im-3m  hall_number: 529, V_con: 7
_audit_creation_date              2025-03-05
_audit_creation_method            'MOFbuilder_1.0'
_symmetry_space_group_name_H-M    'P1'
_symmetry_Int_Tables_number       1
_symmetry_cell_setting            triclinic
loop_
_symmetry_equiv_pos_as_xyz
  x,y,z
_cell_length_a                    36.418
_cell_length_b                    36.418
_cell_length_c                    36.418
_cell_angle_alpha                 90.0
_cell_angle_beta                  90.0
_cell_angle_gamma                 90.0
loop_
_atom_site_label
_atom_site_type_symbol
_atom_site_fract_x
_atom_site_fract_y
_atom_site_fract_z
V1    V   0.13013  0.13013  0.34313
V2    V   0.13013  0.13013  0.65687
V3    V   0.13013  0.34313  0.13013
V4    V   0.13013  0.34313  0.86987
V5    V   0.13013  0.65687  0.13013
V6    V   0.13013  0.65687  0.86987
V7    V   0.13013  0.86987  0.34313
V8    V   0.13013  0.86987  0.65687
V9    V   0.15687  0.36987  0.36987
V10   V   0.15687  0.36987  0.63013
V11   V   0.15687  0.63013  0.36987
V12   V   0.15687  0.63013  0.63013
V13   V   0.34313  0.13013  0.13013
V14   V   0.34313  0.13013  0.86987
V15   V   0.34313  0.86987  0.13013
V16   V   0.34313  0.86987  0.86987
V17   V   0.36987  0.15687  0.36987
V18   V   0.36987  0.15687  0.63013
V19   V   0.36987  0.36987  0.15687
V20   V   0.36987  0.36987  0.84313
V21   V   0.36987  0.63013  0.15687
V22   V   0.36987  0.63013  0.84313
V23   V   0.36987  0.84313  0.36987
V24   V   0.36987  0.84313  0.63013
V25   V   0.63013  0.15687  0.36987
V26   V   0.63013  0.15687  0.63013
V27   V   0.63013  0.36987  0.15687
V28   V   0.63013  0.36987  0.84313
V29   V   0.63013  0.63013  0.15687
V30   V   0.63013  0.63013  0.84313
V31   V   0.63013  0.84313  0.36987
V32   V   0.63013  0.84313  0.63013
V33   V   0.65687  0.13013  0.13013
V34   V   0.65687  0.13013  0.86987
V35   V   0.65687  0.86987  0.13013
V36   V   0.65687  0.86987  0.86987
V37   V   0.84313  0.36987  0.36987
V38   V   0.84313  0.36987  0.63013
V39   V   0.84313  0.63013  0.36987
V40   V   0.84313  0.63013  0.63013
V41   V   0.86987  0.13013  0.34313
V42   V   0.86987  0.13013  0.65687
V43   V   0.86987  0.34313  0.13013
V44   V   0.86987  0.34313  0.86987
V45   V   0.86987  0.65687  0.13013
V46   V   0.86987  0.65687  0.86987
V47   V   0.86987  0.86987  0.34313
V48   V   0.86987  0.86987  0.65687
E1    E   0.00000  0.13013  0.34313
E2    E   0.00000  0.13013  0.65687
E3    E   0.00000  0.34313  0.13013
E4    E   0.00000  0.34313  0.86987
E5    E   0.00000  0.36987  0.36987
E6    E   0.00000  0.36987  0.63013
E7    E   0.00000  0.63013  0.36987
E8    E   0.00000  0.63013  0.63013
E9    E   0.00000  0.65687  0.13013
E10   E   0.00000  0.65687  0.86987
E11   E   0.00000  0.86987  0.34313
E12   E   0.00000  0.86987  0.65687
E13   E   0.13013  0.00000  0.34313
E14   E   0.13013  0.00000  0.65687
E15   E   0.13013  0.13013  0.50000
E16   E   0.13013  0.23663  0.23663
E17   E   0.13013  0.23663  0.76337
E18   E   0.13013  0.34313  0.00000
E19   E   0.13013  0.50000  0.13013
E20   E   0.13013  0.50000  0.86987
E21   E   0.13013  0.65687  0.00000
E22   E   0.13013  0.76337  0.23663
E23   E   0.13013  0.76337  0.76337
E24   E   0.13013  0.86987  0.50000
E25   E   0.14350  0.25000  0.35650
E26   E   0.14350  0.25000  0.64350
E27   E   0.14350  0.35650  0.25000
E28   E   0.14350  0.35650  0.75000
E29   E   0.14350  0.64350  0.25000
E30   E   0.14350  0.64350  0.75000
E31   E   0.14350  0.75000  0.35650
E32   E   0.14350  0.75000  0.64350
E33   E   0.14350  0.25000  0.35650
E34   E   0.14350  0.25000  0.64350
E35   E   0.14350  0.35650  0.25000
E36   E   0.14350  0.35650  0.75000
E37   E   0.14350  0.64350  0.25000
E38   E   0.14350  0.64350  0.75000
E39   E   0.14350  0.75000  0.35650
E40   E   0.14350  0.75000  0.64350
E41   E   0.15687  0.36987  0.50000
E42   E   0.15687  0.50000  0.36987
E43   E   0.15687  0.50000  0.63013
E44   E   0.15687  0.63013  0.50000
E45   E   0.23663  0.13013  0.23663
E46   E   0.23663  0.13013  0.76337
E47   E   0.23663  0.23663  0.13013
E48   E   0.23663  0.23663  0.86987
E49   E   0.23663  0.76337  0.13013
E50   E   0.23663  0.76337  0.86987
E51   E   0.23663  0.86987  0.23663
E52   E   0.23663  0.86987  0.76337
E53   E   0.25000  0.14350  0.35650
E54   E   0.25000  0.14350  0.64350
E55   E   0.25000  0.14350  0.35650
E56   E   0.25000  0.14350  0.64350
E57   E   0.25000  0.35650  0.14350
E58   E   0.25000  0.35650  0.85650
E59   E   0.25000  0.35650  0.14350
E60   E   0.25000  0.35650  0.85650
E61   E   0.25000  0.64350  0.14350
E62   E   0.25000  0.64350  0.14350
E63   E   0.25000  0.64350  0.85650
E64   E   0.25000  0.85650  0.35650
E65   E   0.25000  0.85650  0.35650
E66   E   0.25000  0.85650  0.64350
E67   E   0.26337  0.26337  0.36987
E68   E   0.26337  0.26337  0.63013
E69   E   0.26337  0.36987  0.26337
E70   E   0.26337  0.36987  0.73663
E71   E   0.26337  0.63013  0.26337
E72   E   0.26337  0.63013  0.73663
E73   E   0.26337  0.73663  0.36987
E74   E   0.26337  0.73663  0.63013
E75   E   0.34313  0.00000  0.13013
E76   E   0.34313  0.00000  0.86987
E77   E   0.34313  0.13013  0.00000
E78   E   0.34313  0.86987  0.00000
E79   E   0.35650  0.14350  0.25000
E80   E   0.35650  0.14350  0.75000
E81   E   0.35650  0.25000  0.14350
E82   E   0.35650  0.25000  0.85650
E83   E   0.35650  0.75000  0.14350
E84   E   0.35650  0.75000  0.85650
E85   E   0.35650  0.85650  0.25000
E86   E   0.35650  0.85650  0.75000
E87   E   0.35650  0.14350  0.25000
E88   E   0.35650  0.14350  0.75000
E89   E   0.35650  0.25000  0.14350
E90   E   0.35650  0.25000  0.85650
E91   E   0.35650  0.75000  0.14350
E92   E   0.35650  0.75000  0.85650
E93   E   0.35650  0.85650  0.25000
E94   E   0.35650  0.85650  0.75000
E95   E   0.36987  0.00000  0.36987
E96   E   0.36987  0.00000  0.63013
E97   E   0.36987  0.15687  0.50000
E98   E   0.36987  0.26337  0.26337
E99   E   0.36987  0.26337  0.73663
E100  E   0.36987  0.36987  0.00000
E101  E   0.36987  0.50000  0.15687
E102  E   0.36987  0.50000  0.84313
E103  E   0.36987  0.63013  0.00000
E104  E   0.36987  0.73663  0.26337
E105  E   0.36987  0.73663  0.73663
E106  E   0.36987  0.84313  0.50000
E107  E   0.50000  0.13013  0.13013
E108  E   0.50000  0.13013  0.86987
E109  E   0.50000  0.15687  0.36987
E110  E   0.50000  0.15687  0.63013
E111  E   0.50000  0.36987  0.15687
E112  E   0.50000  0.36987  0.84313
E113  E   0.50000  0.63013  0.15687
E114  E   0.50000  0.63013  0.84313
E115  E   0.50000  0.84313  0.36987
E116  E   0.50000  0.84313  0.63013
E117  E   0.50000  0.86987  0.13013
E118  E   0.50000  0.86987  0.86987
E119  E   0.63013  0.00000  0.36987
E120  E   0.63013  0.00000  0.63013
E121  E   0.63013  0.15687  0.50000
E122  E   0.63013  0.26337  0.26337
E123  E   0.63013  0.26337  0.73663
E124  E   0.63013  0.36987  0.00000
E125  E   0.63013  0.50000  0.15687
E126  E   0.63013  0.50000  0.84313
E127  E   0.63013  0.63013  0.00000
E128  E   0.63013  0.73663  0.26337
E129  E   0.63013  0.73663  0.73663
E130  E   0.63013  0.84313  0.50000
E131  E   0.64350  0.14350  0.25000
E132  E   0.64350  0.14350  0.75000
E133  E   0.64350  0.14350  0.25000
E134  E   0.64350  0.14350  0.75000
E135  E   0.64350  0.25000  0.14350
E136  E   0.64350  0.25000  0.14350
E137  E   0.64350  0.25000  0.85650
E138  E   0.64350  0.75000  0.14350
E139  E   0.64350  0.75000  0.14350
E140  E   0.64350  0.75000  0.85650
E141  E   0.64350  0.85650  0.25000
E142  E   0.64350  0.85650  0.75000
E143  E   0.65687  0.00000  0.13013
E144  E   0.65687  0.00000  0.86987
E145  E   0.65687  0.13013  0.00000
E146  E   0.65687  0.86987  0.00000
E147  E   0.73663  0.26337  0.36987
E148  E   0.73663  0.26337  0.63013
E149  E   0.73663  0.36987  0.26337
E150  E   0.73663  0.36987  0.73663
E151  E   0.73663  0.63013  0.26337
E152  E   0.73663  0.63013  0.73663
E153  E   0.73663  0.73663  0.36987
E154  E   0.73663  0.73663  0.63013
E155  E   0.75000  0.14350  0.35650
E156  E   0.75000  0.14350  0.64350
E157  E   0.75000  0.14350  0.35650
E158  E   0.75000  0.14350  0.64350
E159  E   0.75000  0.35650  0.14350
E160  E   0.75000  0.35650  0.85650
E161  E   0.75000  0.35650  0.14350
E162  E   0.75000  0.35650  0.85650
E163  E   0.75000  0.64350  0.14350
E164  E   0.75000  0.64350  0.14350
E165  E   0.75000  0.64350  0.85650
E166  E   0.75000  0.85650  0.35650
E167  E   0.75000  0.85650  0.35650
E168  E   0.75000  0.85650  0.64350
E169  E   0.76337  0.13013  0.23663
E170  E   0.76337  0.13013  0.76337
E171  E   0.76337  0.23663  0.13013
E172  E   0.76337  0.23663  0.86987
E173  E   0.76337  0.76337  0.13013
E174  E   0.76337  0.76337  0.86987
E175  E   0.76337  0.86987  0.23663
E176  E   0.76337  0.86987  0.76337
E177  E   0.84313  0.36987  0.50000
E178  E   0.84313  0.50000  0.36987
E179  E   0.84313  0.50000  0.63013
E180  E   0.84313  0.63013  0.50000
E181  E   0.85650  0.25000  0.35650
E182  E   0.85650  0.25000  0.35650
E183  E   0.85650  0.25000  0.64350
E184  E   0.85650  0.35650  0.25000
E185  E   0.85650  0.35650  0.75000
E186  E   0.85650  0.35650  0.25000
E187  E   0.85650  0.35650  0.75000
E188  E   0.85650  0.64350  0.25000
E189  E   0.85650  0.64350  0.75000
E190  E   0.85650  0.75000  0.35650
E191  E   0.85650  0.75000  0.35650
E192  E   0.85650  0.75000  0.64350
E193  E   0.86987  0.00000  0.34313
E194  E   0.86987  0.00000  0.65687
E195  E   0.86987  0.13013  0.50000
E196  E   0.86987  0.23663  0.23663
E197  E   0.86987  0.23663  0.76337
E198  E   0.86987  0.34313  0.00000
E199  E   0.86987  0.50000  0.13013
E200  E   0.86987  0.50000  0.86987
E201  E   0.86987  0.65687  0.00000
E202  E   0.86987  0.76337  0.23663
E203  E   0.86987  0.76337  0.76337
E204  E   0.86987  0.86987  0.50000
loop_
