data_off_P-6m2  hall_number: 481, V_con: 4, EC_con: 4
_audit_creation_date              2025-03-05
_audit_creation_method            'MOFbuilder_1.0'
_symmetry_space_group_name_H-M    'P1'
_symmetry_Int_Tables_number       1
_symmetry_cell_setting            triclinic
loop_
_symmetry_equiv_pos_as_xyz
  x,y,z
_cell_length_a                    42.2577
_cell_length_b                    42.2577
_cell_length_c                    24.1304
_cell_angle_alpha                 90.0
_cell_angle_beta                  90.0
_cell_angle_gamma                 120.0
loop_
_atom_site_label
_atom_site_type_symbol
_atom_site_fract_x
_atom_site_fract_y
_atom_site_fract_z
V1    V   0.43002  0.09669  0.29279
V2    V   0.43002  0.09669  0.70721
V3    V   0.43002  0.33333  0.29279
V4    V   0.43002  0.33333  0.70721
V5    V   0.66667  0.09669  0.29279
V6    V   0.66667  0.09669  0.70721
V7    V   0.66667  0.56998  0.29279
V8    V   0.66667  0.56998  0.70721
V9    V   0.90331  0.33333  0.29279
V10   V   0.90331  0.33333  0.70721
V11   V   0.90331  0.56998  0.29279
V12   V   0.90331  0.56998  0.70721
EC1    EC   0.09669  0.43002  0.00000
EC2    EC   0.09669  0.66667  0.00000
EC3    EC   0.33333  0.43002  0.00000
EC4    EC   0.33333  0.90331  0.00000
EC5    EC   0.56998  0.66667  0.00000
EC6    EC   0.56998  0.90331  0.00000
E1    E   0.00000  0.38168  0.14640
E2    E   0.00000  0.38168  0.85360
E3    E   0.00000  0.61832  0.14640
E4    E   0.00000  0.61832  0.85360
E5    E   0.09668  0.54834  0.00000
E6    E   0.21501  0.43002  0.00000
E7    E   0.21501  0.78499  0.00000
E8    E   0.38168  0.00000  0.14640
E9    E   0.38168  0.00000  0.85360
E10   E   0.38168  0.38168  0.14640
E11   E   0.38168  0.38168  0.85360
E12   E   0.43002  0.09669  0.50000
E13   E   0.43002  0.21501  0.29279
E14   E   0.43002  0.21501  0.70721
E15   E   0.43002  0.33333  0.50000
E16   E   0.45166  0.54834  0.00000
E17   E   0.45166  0.90332  0.00000
E18   E   0.45166  0.54834  0.00000
E19   E   0.45166  0.90332  0.00000
E20   E   0.54834  0.09669  0.29279
E21   E   0.54834  0.09669  0.70721
E22   E   0.54834  0.45165  0.29279
E23   E   0.54834  0.45165  0.70721
E24   E   0.54835  0.09669  0.29279
E25   E   0.54835  0.09669  0.70721
E26   E   0.54835  0.45166  0.29279
E27   E   0.54835  0.45166  0.70721
E28   E   0.56998  0.78499  0.00000
E29   E   0.61832  0.00000  0.14640
E30   E   0.61832  0.00000  0.85360
E31   E   0.61832  0.61832  0.14640
E32   E   0.61832  0.61832  0.85360
E33   E   0.66667  0.09669  0.50000
E34   E   0.66667  0.56998  0.50000
E35   E   0.78499  0.21501  0.29279
E36   E   0.78499  0.21501  0.70721
E37   E   0.78499  0.56998  0.29279
E38   E   0.78499  0.56998  0.70721
E39   E   0.90331  0.33333  0.50000
E40   E   0.90331  0.45165  0.29279
E41   E   0.90331  0.45165  0.70721
E42   E   0.90331  0.45166  0.29279
E43   E   0.90331  0.45166  0.70721
E44   E   0.90331  0.56998  0.50000
loop_
