data_omy_F-43m  hall_number: 512, V_con: 4, EC_con: 4
_audit_creation_date              2025-03-05
_audit_creation_method            'MOFbuilder_1.0'
_symmetry_space_group_name_H-M    'P1'
_symmetry_Int_Tables_number       1
_symmetry_cell_setting            triclinic
loop_
_symmetry_equiv_pos_as_xyz
  x,y,z
_cell_length_a                    37.2362
_cell_length_b                    37.2362
_cell_length_c                    37.2362
_cell_angle_alpha                 90.0
_cell_angle_beta                  90.0
_cell_angle_gamma                 90.0
loop_
_atom_site_label
_atom_site_type_symbol
_atom_site_fract_x
_atom_site_fract_y
_atom_site_fract_z
V1    V   0.00000  0.00000  0.00000
V2    V   0.00000  0.50000  0.50000
V3    V   0.50000  0.00000  0.50000
V4    V   0.50000  0.50000  0.00000
EC1    EC   0.15505  0.15505  0.15505
EC2    EC   0.15505  0.34495  0.34495
EC3    EC   0.15505  0.65505  0.65505
EC4    EC   0.15505  0.84495  0.84495
EC5    EC   0.34495  0.15505  0.34495
EC6    EC   0.34495  0.34495  0.15505
EC7    EC   0.34495  0.65505  0.84495
EC8    EC   0.34495  0.84495  0.65505
EC9    EC   0.65505  0.15505  0.65505
EC10   EC   0.65505  0.34495  0.84495
EC11   EC   0.65505  0.65505  0.15505
EC12   EC   0.65505  0.84495  0.34495
EC13   EC   0.84495  0.15505  0.84495
EC14   EC   0.84495  0.34495  0.65505
EC15   EC   0.84495  0.65505  0.34495
EC16   EC   0.84495  0.84495  0.15505
E1    E   0.07753  0.07753  0.07753
E2    E   0.07753  0.42247  0.42247
E3    E   0.07753  0.57753  0.57753
E4    E   0.07753  0.92247  0.92247
E5    E   0.15505  0.25000  0.25000
E6    E   0.15505  0.75000  0.75000
E7    E   0.25000  0.15505  0.25000
E8    E   0.25000  0.25000  0.15505
E9    E   0.25000  0.25000  0.34495
E10   E   0.25000  0.34495  0.25000
E11   E   0.25000  0.65505  0.75000
E12   E   0.25000  0.75000  0.65505
E13   E   0.25000  0.75000  0.84495
E14   E   0.25000  0.84495  0.75000
E15   E   0.34495  0.25000  0.25000
E16   E   0.34495  0.75000  0.75000
E17   E   0.42247  0.07753  0.42247
E18   E   0.42247  0.42247  0.07753
E19   E   0.42247  0.57753  0.92247
E20   E   0.42247  0.92247  0.57753
E21   E   0.57753  0.07753  0.57753
E22   E   0.57753  0.42247  0.92247
E23   E   0.57753  0.57753  0.07753
E24   E   0.57753  0.92247  0.42247
E25   E   0.65505  0.25000  0.75000
E26   E   0.65505  0.75000  0.25000
E27   E   0.75000  0.15505  0.75000
E28   E   0.75000  0.25000  0.65505
E29   E   0.75000  0.25000  0.84495
E30   E   0.75000  0.34495  0.75000
E31   E   0.75000  0.65505  0.25000
E32   E   0.75000  0.75000  0.15505
E33   E   0.75000  0.75000  0.34495
E34   E   0.75000  0.84495  0.25000
E35   E   0.84495  0.25000  0.75000
E36   E   0.84495  0.75000  0.25000
E37   E   0.92247  0.07753  0.92247
E38   E   0.92247  0.42247  0.57753
E39   E   0.92247  0.57753  0.42247
E40   E   0.92247  0.92247  0.07753
loop_
