data_pcb-e_Im-3m  hall_number: 529, V_con: 6, EC_con: 6
_audit_creation_date              2025-03-05
_audit_creation_method            'MOFbuilder_1.0'
_symmetry_space_group_name_H-M    'P1'
_symmetry_Int_Tables_number       1
_symmetry_cell_setting            triclinic
loop_
_symmetry_equiv_pos_as_xyz
  x,y,z
_cell_length_a                    37.7124
_cell_length_b                    37.7124
_cell_length_c                    37.7124
_cell_angle_alpha                 90.0
_cell_angle_beta                  90.0
_cell_angle_gamma                 90.0
loop_
_atom_site_label
_atom_site_type_symbol
_atom_site_fract_x
_atom_site_fract_y
_atom_site_fract_z
V1    V   0.00000  0.18750  0.18750
V2    V   0.00000  0.18750  0.81250
V3    V   0.00000  0.81250  0.18750
V4    V   0.00000  0.81250  0.81250
V5    V   0.18750  0.00000  0.18750
V6    V   0.18750  0.00000  0.81250
V7    V   0.18750  0.18750  0.00000
V8    V   0.18750  0.81250  0.00000
V9    V   0.31250  0.31250  0.50000
V10   V   0.31250  0.50000  0.31250
V11   V   0.31250  0.50000  0.68750
V12   V   0.31250  0.68750  0.50000
V13   V   0.50000  0.31250  0.31250
V14   V   0.50000  0.31250  0.68750
V15   V   0.50000  0.68750  0.31250
V16   V   0.50000  0.68750  0.68750
V17   V   0.68750  0.31250  0.50000
V18   V   0.68750  0.50000  0.31250
V19   V   0.68750  0.50000  0.68750
V20   V   0.68750  0.68750  0.50000
V21   V   0.81250  0.00000  0.18750
V22   V   0.81250  0.00000  0.81250
V23   V   0.81250  0.18750  0.00000
V24   V   0.81250  0.81250  0.00000
EC1    EC   0.25000  0.25000  0.25000
EC2    EC   0.25000  0.25000  0.75000
EC3    EC   0.25000  0.75000  0.25000
EC4    EC   0.25000  0.75000  0.75000
EC5    EC   0.75000  0.25000  0.25000
EC6    EC   0.75000  0.25000  0.75000
EC7    EC   0.75000  0.75000  0.25000
EC8    EC   0.75000  0.75000  0.75000
E1    E   0.09375  0.09375  0.18750
E2    E   0.09375  0.09375  0.81250
E3    E   0.09375  0.18750  0.09375
E4    E   0.09375  0.18750  0.90625
E5    E   0.09375  0.81250  0.09375
E6    E   0.09375  0.81250  0.90625
E7    E   0.09375  0.90625  0.18750
E8    E   0.09375  0.90625  0.81250
E9    E   0.12500  0.21875  0.21875
E10   E   0.12500  0.21875  0.78125
E11   E   0.12500  0.78125  0.21875
E12   E   0.12500  0.78125  0.78125
E13   E   0.18750  0.09375  0.09375
E14   E   0.18750  0.09375  0.90625
E15   E   0.18750  0.90625  0.09375
E16   E   0.18750  0.90625  0.90625
E17   E   0.21875  0.12500  0.21875
E18   E   0.21875  0.12500  0.78125
E19   E   0.21875  0.21875  0.12500
E20   E   0.21875  0.21875  0.87500
E21   E   0.21875  0.78125  0.12500
E22   E   0.21875  0.78125  0.87500
E23   E   0.21875  0.87500  0.21875
E24   E   0.21875  0.87500  0.78125
E25   E   0.28125  0.28125  0.37500
E26   E   0.28125  0.28125  0.62500
E27   E   0.28125  0.37500  0.28125
E28   E   0.28125  0.37500  0.71875
E29   E   0.28125  0.62500  0.28125
E30   E   0.28125  0.62500  0.71875
E31   E   0.28125  0.71875  0.37500
E32   E   0.28125  0.71875  0.62500
E33   E   0.31250  0.40625  0.40625
E34   E   0.31250  0.40625  0.59375
E35   E   0.31250  0.59375  0.40625
E36   E   0.31250  0.59375  0.59375
E37   E   0.37500  0.28125  0.28125
E38   E   0.37500  0.28125  0.71875
E39   E   0.37500  0.71875  0.28125
E40   E   0.37500  0.71875  0.71875
E41   E   0.40625  0.31250  0.40625
E42   E   0.40625  0.31250  0.59375
E43   E   0.40625  0.40625  0.31250
E44   E   0.40625  0.40625  0.68750
E45   E   0.40625  0.59375  0.31250
E46   E   0.40625  0.59375  0.68750
E47   E   0.40625  0.68750  0.40625
E48   E   0.40625  0.68750  0.59375
E49   E   0.59375  0.31250  0.40625
E50   E   0.59375  0.31250  0.59375
E51   E   0.59375  0.40625  0.31250
E52   E   0.59375  0.40625  0.68750
E53   E   0.59375  0.59375  0.31250
E54   E   0.59375  0.59375  0.68750
E55   E   0.59375  0.68750  0.40625
E56   E   0.59375  0.68750  0.59375
E57   E   0.62500  0.28125  0.28125
E58   E   0.62500  0.28125  0.71875
E59   E   0.62500  0.71875  0.28125
E60   E   0.62500  0.71875  0.71875
E61   E   0.68750  0.40625  0.40625
E62   E   0.68750  0.40625  0.59375
E63   E   0.68750  0.59375  0.40625
E64   E   0.68750  0.59375  0.59375
E65   E   0.71875  0.28125  0.37500
E66   E   0.71875  0.28125  0.62500
E67   E   0.71875  0.37500  0.28125
E68   E   0.71875  0.37500  0.71875
E69   E   0.71875  0.62500  0.28125
E70   E   0.71875  0.62500  0.71875
E71   E   0.71875  0.71875  0.37500
E72   E   0.71875  0.71875  0.62500
E73   E   0.78125  0.12500  0.21875
E74   E   0.78125  0.12500  0.78125
E75   E   0.78125  0.21875  0.12500
E76   E   0.78125  0.21875  0.87500
E77   E   0.78125  0.78125  0.12500
E78   E   0.78125  0.78125  0.87500
E79   E   0.78125  0.87500  0.21875
E80   E   0.78125  0.87500  0.78125
E81   E   0.81250  0.09375  0.09375
E82   E   0.81250  0.09375  0.90625
E83   E   0.81250  0.90625  0.09375
E84   E   0.81250  0.90625  0.90625
E85   E   0.87500  0.21875  0.21875
E86   E   0.87500  0.21875  0.78125
E87   E   0.87500  0.78125  0.21875
E88   E   0.87500  0.78125  0.78125
E89   E   0.90625  0.09375  0.18750
E90   E   0.90625  0.09375  0.81250
E91   E   0.90625  0.18750  0.09375
E92   E   0.90625  0.18750  0.90625
E93   E   0.90625  0.81250  0.09375
E94   E   0.90625  0.81250  0.90625
E95   E   0.90625  0.90625  0.18750
E96   E   0.90625  0.90625  0.81250
loop_
