data_pcb_Im-3m  hall_number: 529, V_con: 4
_audit_creation_date              2025-03-05
_audit_creation_method            'MOFbuilder_1.0'
_symmetry_space_group_name_H-M    'P1'
_symmetry_Int_Tables_number       1
_symmetry_cell_setting            triclinic
loop_
_symmetry_equiv_pos_as_xyz
  x,y,z
_cell_length_a                    31.547
_cell_length_b                    31.547
_cell_length_c                    31.547
_cell_angle_alpha                 90.0
_cell_angle_beta                  90.0
_cell_angle_gamma                 90.0
loop_
_atom_site_label
_atom_site_type_symbol
_atom_site_fract_x
_atom_site_fract_y
_atom_site_fract_z
V1    V   0.15849  0.15849  0.15849
V2    V   0.15849  0.15849  0.84151
V3    V   0.15849  0.84151  0.15849
V4    V   0.15849  0.84151  0.84151
V5    V   0.34151  0.34151  0.34151
V6    V   0.34151  0.34151  0.65849
V7    V   0.34151  0.65849  0.34151
V8    V   0.34151  0.65849  0.65849
V9    V   0.65849  0.34151  0.34151
V10   V   0.65849  0.34151  0.65849
V11   V   0.65849  0.65849  0.34151
V12   V   0.65849  0.65849  0.65849
V13   V   0.84151  0.15849  0.15849
V14   V   0.84151  0.15849  0.84151
V15   V   0.84151  0.84151  0.15849
V16   V   0.84151  0.84151  0.84151
E1    E   0.00000  0.15849  0.15849
E2    E   0.00000  0.15849  0.84151
E3    E   0.00000  0.84151  0.15849
E4    E   0.00000  0.84151  0.84151
E5    E   0.15849  0.00000  0.15849
E6    E   0.15849  0.00000  0.84151
E7    E   0.15849  0.15849  0.00000
E8    E   0.15849  0.84151  0.00000
E9    E   0.25000  0.25000  0.25000
E10   E   0.25000  0.25000  0.75000
E11   E   0.25000  0.75000  0.25000
E12   E   0.25000  0.75000  0.75000
E13   E   0.34151  0.34151  0.50000
E14   E   0.34151  0.50000  0.34151
E15   E   0.34151  0.50000  0.65849
E16   E   0.34151  0.65849  0.50000
E17   E   0.50000  0.34151  0.34151
E18   E   0.50000  0.34151  0.65849
E19   E   0.50000  0.65849  0.34151
E20   E   0.50000  0.65849  0.65849
E21   E   0.65849  0.34151  0.50000
E22   E   0.65849  0.50000  0.34151
E23   E   0.65849  0.50000  0.65849
E24   E   0.65849  0.65849  0.50000
E25   E   0.75000  0.25000  0.25000
E26   E   0.75000  0.25000  0.75000
E27   E   0.75000  0.75000  0.25000
E28   E   0.75000  0.75000  0.75000
E29   E   0.84151  0.00000  0.15849
E30   E   0.84151  0.00000  0.84151
E31   E   0.84151  0.15849  0.00000
E32   E   0.84151  0.84151  0.00000
loop_
