data_pdm_Fm-3c  hall_number: 524, V_con: 7, EC_con: 6
_audit_creation_date              2025-03-05
_audit_creation_method            'MOFbuilder_1.0'
_symmetry_space_group_name_H-M    'P1'
_symmetry_Int_Tables_number       1
_symmetry_cell_setting            triclinic
loop_
_symmetry_equiv_pos_as_xyz
  x,y,z
_cell_length_a                    79.4944
_cell_length_b                    79.4944
_cell_length_c                    79.4944
_cell_angle_alpha                 90.0
_cell_angle_beta                  90.0
_cell_angle_gamma                 90.0
loop_
_atom_site_label
_atom_site_type_symbol
_atom_site_fract_x
_atom_site_fract_y
_atom_site_fract_z
V1    V   0.10622  0.17203  0.29243
V2    V   0.10622  0.17203  0.70757
V3    V   0.10622  0.20757  0.17203
V4    V   0.10622  0.20757  0.82797
V5    V   0.10622  0.29243  0.32797
V6    V   0.10622  0.29243  0.67203
V7    V   0.10622  0.32797  0.20757
V8    V   0.10622  0.32797  0.79243
V9    V   0.10622  0.67203  0.20757
V10   V   0.10622  0.67203  0.79243
V11   V   0.10622  0.70757  0.32797
V12   V   0.10622  0.70757  0.67203
V13   V   0.10622  0.79243  0.17203
V14   V   0.10622  0.79243  0.82797
V15   V   0.10622  0.82797  0.29243
V16   V   0.10622  0.82797  0.70757
V17   V   0.17203  0.10622  0.20757
V18   V   0.17203  0.10622  0.79243
V19   V   0.17203  0.20757  0.39378
V20   V   0.17203  0.20757  0.60622
V21   V   0.17203  0.29243  0.10622
V22   V   0.17203  0.29243  0.89378
V23   V   0.17203  0.39378  0.29243
V24   V   0.17203  0.39378  0.70757
V25   V   0.17203  0.60622  0.29243
V26   V   0.17203  0.60622  0.70757
V27   V   0.17203  0.70757  0.10622
V28   V   0.17203  0.70757  0.89378
V29   V   0.17203  0.79243  0.39378
V30   V   0.17203  0.79243  0.60622
V31   V   0.17203  0.89378  0.20757
V32   V   0.17203  0.89378  0.79243
V33   V   0.20757  0.10622  0.32797
V34   V   0.20757  0.10622  0.67203
V35   V   0.20757  0.17203  0.10622
V36   V   0.20757  0.17203  0.89378
V37   V   0.20757  0.32797  0.39378
V38   V   0.20757  0.32797  0.60622
V39   V   0.20757  0.39378  0.17203
V40   V   0.20757  0.39378  0.82797
V41   V   0.20757  0.60622  0.17203
V42   V   0.20757  0.60622  0.82797
V43   V   0.20757  0.67203  0.39378
V44   V   0.20757  0.67203  0.60622
V45   V   0.20757  0.82797  0.10622
V46   V   0.20757  0.82797  0.89378
V47   V   0.20757  0.89378  0.32797
V48   V   0.20757  0.89378  0.67203
V49   V   0.29243  0.10622  0.17203
V50   V   0.29243  0.10622  0.82797
V51   V   0.29243  0.17203  0.39378
V52   V   0.29243  0.17203  0.60622
V53   V   0.29243  0.32797  0.10622
V54   V   0.29243  0.32797  0.89378
V55   V   0.29243  0.39378  0.32797
V56   V   0.29243  0.39378  0.67203
V57   V   0.29243  0.60622  0.32797
V58   V   0.29243  0.60622  0.67203
V59   V   0.29243  0.67203  0.10622
V60   V   0.29243  0.67203  0.89378
V61   V   0.29243  0.82797  0.39378
V62   V   0.29243  0.82797  0.60622
V63   V   0.29243  0.89378  0.17203
V64   V   0.29243  0.89378  0.82797
V65   V   0.32797  0.10622  0.29243
V66   V   0.32797  0.10622  0.70757
V67   V   0.32797  0.20757  0.10622
V68   V   0.32797  0.20757  0.89378
V69   V   0.32797  0.29243  0.39378
V70   V   0.32797  0.29243  0.60622
V71   V   0.32797  0.39378  0.20757
V72   V   0.32797  0.39378  0.79243
V73   V   0.32797  0.60622  0.20757
V74   V   0.32797  0.60622  0.79243
V75   V   0.32797  0.70757  0.39378
V76   V   0.32797  0.70757  0.60622
V77   V   0.32797  0.79243  0.10622
V78   V   0.32797  0.79243  0.89378
V79   V   0.32797  0.89378  0.29243
V80   V   0.32797  0.89378  0.70757
V81   V   0.39378  0.17203  0.20757
V82   V   0.39378  0.17203  0.79243
V83   V   0.39378  0.20757  0.32797
V84   V   0.39378  0.20757  0.67203
V85   V   0.39378  0.29243  0.17203
V86   V   0.39378  0.29243  0.82797
V87   V   0.39378  0.32797  0.29243
V88   V   0.39378  0.32797  0.70757
V89   V   0.39378  0.67203  0.29243
V90   V   0.39378  0.67203  0.70757
V91   V   0.39378  0.70757  0.17203
V92   V   0.39378  0.70757  0.82797
V93   V   0.39378  0.79243  0.32797
V94   V   0.39378  0.79243  0.67203
V95   V   0.39378  0.82797  0.20757
V96   V   0.39378  0.82797  0.79243
V97   V   0.60622  0.17203  0.20757
V98   V   0.60622  0.17203  0.79243
V99   V   0.60622  0.20757  0.32797
V100  V   0.60622  0.20757  0.67203
V101  V   0.60622  0.29243  0.17203
V102  V   0.60622  0.29243  0.82797
V103  V   0.60622  0.32797  0.29243
V104  V   0.60622  0.32797  0.70757
V105  V   0.60622  0.67203  0.29243
V106  V   0.60622  0.67203  0.70757
V107  V   0.60622  0.70757  0.17203
V108  V   0.60622  0.70757  0.82797
V109  V   0.60622  0.79243  0.32797
V110  V   0.60622  0.79243  0.67203
V111  V   0.60622  0.82797  0.20757
V112  V   0.60622  0.82797  0.79243
V113  V   0.67203  0.10622  0.29243
V114  V   0.67203  0.10622  0.70757
V115  V   0.67203  0.20757  0.10622
V116  V   0.67203  0.20757  0.89378
V117  V   0.67203  0.29243  0.39378
V118  V   0.67203  0.29243  0.60622
V119  V   0.67203  0.39378  0.20757
V120  V   0.67203  0.39378  0.79243
V121  V   0.67203  0.60622  0.20757
V122  V   0.67203  0.60622  0.79243
V123  V   0.67203  0.70757  0.39378
V124  V   0.67203  0.70757  0.60622
V125  V   0.67203  0.79243  0.10622
V126  V   0.67203  0.79243  0.89378
V127  V   0.67203  0.89378  0.29243
V128  V   0.67203  0.89378  0.70757
V129  V   0.70757  0.10622  0.17203
V130  V   0.70757  0.10622  0.82797
V131  V   0.70757  0.17203  0.39378
V132  V   0.70757  0.17203  0.60622
V133  V   0.70757  0.32797  0.10622
V134  V   0.70757  0.32797  0.89378
V135  V   0.70757  0.39378  0.32797
V136  V   0.70757  0.39378  0.67203
V137  V   0.70757  0.60622  0.32797
V138  V   0.70757  0.60622  0.67203
V139  V   0.70757  0.67203  0.10622
V140  V   0.70757  0.67203  0.89378
V141  V   0.70757  0.82797  0.39378
V142  V   0.70757  0.82797  0.60622
V143  V   0.70757  0.89378  0.17203
V144  V   0.70757  0.89378  0.82797
V145  V   0.79243  0.10622  0.32797
V146  V   0.79243  0.10622  0.67203
V147  V   0.79243  0.17203  0.10622
V148  V   0.79243  0.17203  0.89378
V149  V   0.79243  0.32797  0.39378
V150  V   0.79243  0.32797  0.60622
V151  V   0.79243  0.39378  0.17203
V152  V   0.79243  0.39378  0.82797
V153  V   0.79243  0.60622  0.17203
V154  V   0.79243  0.60622  0.82797
V155  V   0.79243  0.67203  0.39378
V156  V   0.79243  0.67203  0.60622
V157  V   0.79243  0.82797  0.10622
V158  V   0.79243  0.82797  0.89378
V159  V   0.79243  0.89378  0.32797
V160  V   0.79243  0.89378  0.67203
V161  V   0.82797  0.10622  0.20757
V162  V   0.82797  0.10622  0.79243
V163  V   0.82797  0.20757  0.39378
V164  V   0.82797  0.20757  0.60622
V165  V   0.82797  0.29243  0.10622
V166  V   0.82797  0.29243  0.89378
V167  V   0.82797  0.39378  0.29243
V168  V   0.82797  0.39378  0.70757
V169  V   0.82797  0.60622  0.29243
V170  V   0.82797  0.60622  0.70757
V171  V   0.82797  0.70757  0.10622
V172  V   0.82797  0.70757  0.89378
V173  V   0.82797  0.79243  0.39378
V174  V   0.82797  0.79243  0.60622
V175  V   0.82797  0.89378  0.20757
V176  V   0.82797  0.89378  0.79243
V177  V   0.89378  0.17203  0.29243
V178  V   0.89378  0.17203  0.70757
V179  V   0.89378  0.20757  0.17203
V180  V   0.89378  0.20757  0.82797
V181  V   0.89378  0.29243  0.32797
V182  V   0.89378  0.29243  0.67203
V183  V   0.89378  0.32797  0.20757
V184  V   0.89378  0.32797  0.79243
V185  V   0.89378  0.67203  0.20757
V186  V   0.89378  0.67203  0.79243
V187  V   0.89378  0.70757  0.32797
V188  V   0.89378  0.70757  0.67203
V189  V   0.89378  0.79243  0.17203
V190  V   0.89378  0.79243  0.82797
V191  V   0.89378  0.82797  0.29243
V192  V   0.89378  0.82797  0.70757
EC1    EC   0.00000  0.16524  0.22498
EC2    EC   0.00000  0.16524  0.77502
EC3    EC   0.00000  0.22498  0.33476
EC4    EC   0.00000  0.22498  0.66524
EC5    EC   0.00000  0.27502  0.16524
EC6    EC   0.00000  0.27502  0.83476
EC7    EC   0.00000  0.33476  0.27502
EC8    EC   0.00000  0.33476  0.72498
EC9    EC   0.00000  0.66524  0.27502
EC10   EC   0.00000  0.66524  0.72498
EC11   EC   0.00000  0.72498  0.16524
EC12   EC   0.00000  0.72498  0.83476
EC13   EC   0.00000  0.77502  0.33476
EC14   EC   0.00000  0.77502  0.66524
EC15   EC   0.00000  0.83476  0.22498
EC16   EC   0.00000  0.83476  0.77502
EC17   EC   0.16524  0.00000  0.27502
EC18   EC   0.16524  0.00000  0.72498
EC19   EC   0.16524  0.22498  0.00000
EC20   EC   0.16524  0.27502  0.50000
EC21   EC   0.16524  0.50000  0.22498
EC22   EC   0.16524  0.50000  0.77502
EC23   EC   0.16524  0.72498  0.50000
EC24   EC   0.16524  0.77502  0.00000
EC25   EC   0.22498  0.00000  0.16524
EC26   EC   0.22498  0.00000  0.83476
EC27   EC   0.22498  0.16524  0.50000
EC28   EC   0.22498  0.33476  0.00000
EC29   EC   0.22498  0.50000  0.33476
EC30   EC   0.22498  0.50000  0.66524
EC31   EC   0.22498  0.66524  0.00000
EC32   EC   0.22498  0.83476  0.50000
EC33   EC   0.27502  0.00000  0.33476
EC34   EC   0.27502  0.00000  0.66524
EC35   EC   0.27502  0.16524  0.00000
EC36   EC   0.27502  0.33476  0.50000
EC37   EC   0.27502  0.50000  0.16524
EC38   EC   0.27502  0.50000  0.83476
EC39   EC   0.27502  0.66524  0.50000
EC40   EC   0.27502  0.83476  0.00000
EC41   EC   0.33476  0.00000  0.22498
EC42   EC   0.33476  0.00000  0.77502
EC43   EC   0.33476  0.22498  0.50000
EC44   EC   0.33476  0.27502  0.00000
EC45   EC   0.33476  0.50000  0.27502
EC46   EC   0.33476  0.50000  0.72498
EC47   EC   0.33476  0.72498  0.00000
EC48   EC   0.33476  0.77502  0.50000
EC49   EC   0.50000  0.16524  0.27502
EC50   EC   0.50000  0.16524  0.72498
EC51   EC   0.50000  0.22498  0.16524
EC52   EC   0.50000  0.22498  0.83476
EC53   EC   0.50000  0.27502  0.33476
EC54   EC   0.50000  0.27502  0.66524
EC55   EC   0.50000  0.33476  0.22498
EC56   EC   0.50000  0.33476  0.77502
EC57   EC   0.50000  0.66524  0.22498
EC58   EC   0.50000  0.66524  0.77502
EC59   EC   0.50000  0.72498  0.33476
EC60   EC   0.50000  0.72498  0.66524
EC61   EC   0.50000  0.77502  0.16524
EC62   EC   0.50000  0.77502  0.83476
EC63   EC   0.50000  0.83476  0.27502
EC64   EC   0.50000  0.83476  0.72498
EC65   EC   0.66524  0.00000  0.22498
EC66   EC   0.66524  0.00000  0.77502
EC67   EC   0.66524  0.22498  0.50000
EC68   EC   0.66524  0.27502  0.00000
EC69   EC   0.66524  0.50000  0.27502
EC70   EC   0.66524  0.50000  0.72498
EC71   EC   0.66524  0.72498  0.00000
EC72   EC   0.66524  0.77502  0.50000
EC73   EC   0.72498  0.00000  0.33476
EC74   EC   0.72498  0.00000  0.66524
EC75   EC   0.72498  0.16524  0.00000
EC76   EC   0.72498  0.33476  0.50000
EC77   EC   0.72498  0.50000  0.16524
EC78   EC   0.72498  0.50000  0.83476
EC79   EC   0.72498  0.66524  0.50000
EC80   EC   0.72498  0.83476  0.00000
EC81   EC   0.77502  0.00000  0.16524
EC82   EC   0.77502  0.00000  0.83476
EC83   EC   0.77502  0.16524  0.50000
EC84   EC   0.77502  0.33476  0.00000
EC85   EC   0.77502  0.50000  0.33476
EC86   EC   0.77502  0.50000  0.66524
EC87   EC   0.77502  0.66524  0.00000
EC88   EC   0.77502  0.83476  0.50000
EC89   EC   0.83476  0.00000  0.27502
EC90   EC   0.83476  0.00000  0.72498
EC91   EC   0.83476  0.22498  0.00000
EC92   EC   0.83476  0.27502  0.50000
EC93   EC   0.83476  0.50000  0.22498
EC94   EC   0.83476  0.50000  0.77502
EC95   EC   0.83476  0.72498  0.50000
EC96   EC   0.83476  0.77502  0.00000
E1    E   0.00000  0.19511  0.27987
E2    E   0.00000  0.19511  0.72013
E3    E   0.00000  0.22013  0.19511
E4    E   0.00000  0.22013  0.80489
E5    E   0.00000  0.27987  0.30489
E6    E   0.00000  0.27987  0.69511
E7    E   0.00000  0.30489  0.22013
E8    E   0.00000  0.30489  0.77987
E9    E   0.00000  0.69511  0.22013
E10   E   0.00000  0.69511  0.77987
E11   E   0.00000  0.72013  0.30489
E12   E   0.00000  0.72013  0.69511
E13   E   0.00000  0.77987  0.19511
E14   E   0.00000  0.77987  0.80489
E15   E   0.00000  0.80489  0.27987
E16   E   0.00000  0.80489  0.72013
E17   E   0.05311  0.16864  0.25871
E18   E   0.05311  0.16864  0.74129
E19   E   0.05311  0.18641  0.19851
E20   E   0.05311  0.18641  0.80149
E21   E   0.05311  0.19851  0.31359
E22   E   0.05311  0.19851  0.68641
E23   E   0.05311  0.24129  0.16864
E24   E   0.05311  0.24129  0.83136
E25   E   0.05311  0.25871  0.33136
E26   E   0.05311  0.25871  0.66864
E27   E   0.05311  0.30149  0.18641
E28   E   0.05311  0.30149  0.81359
E29   E   0.05311  0.31359  0.30149
E30   E   0.05311  0.31359  0.69851
E31   E   0.05311  0.33136  0.24129
E32   E   0.05311  0.33136  0.75871
E33   E   0.05311  0.66864  0.24129
E34   E   0.05311  0.66864  0.75871
E35   E   0.05311  0.68641  0.30149
E36   E   0.05311  0.68641  0.69851
E37   E   0.05311  0.69851  0.18641
E38   E   0.05311  0.69851  0.81359
E39   E   0.05311  0.74129  0.33136
E40   E   0.05311  0.74129  0.66864
E41   E   0.05311  0.75871  0.16864
E42   E   0.05311  0.75871  0.83136
E43   E   0.05311  0.80149  0.31359
E44   E   0.05311  0.80149  0.68641
E45   E   0.05311  0.81359  0.19851
E46   E   0.05311  0.81359  0.80149
E47   E   0.05311  0.83136  0.25871
E48   E   0.05311  0.83136  0.74129
E49   E   0.10622  0.18980  0.23223
E50   E   0.10622  0.18980  0.76777
E51   E   0.10622  0.23223  0.31020
E52   E   0.10622  0.23223  0.68980
E53   E   0.10622  0.26777  0.18980
E54   E   0.10622  0.26777  0.81020
E55   E   0.10622  0.31020  0.26777
E56   E   0.10622  0.31020  0.73223
E57   E   0.10622  0.68980  0.26777
E58   E   0.10622  0.68980  0.73223
E59   E   0.10622  0.73223  0.18980
E60   E   0.10622  0.73223  0.81020
E61   E   0.10622  0.76777  0.31020
E62   E   0.10622  0.76777  0.68980
E63   E   0.10622  0.81020  0.23223
E64   E   0.10622  0.81020  0.76777
E65   E   0.13913  0.13913  0.25000
E66   E   0.13913  0.13913  0.75000
E67   E   0.13913  0.15690  0.18980
E68   E   0.13913  0.15690  0.81020
E69   E   0.13913  0.18980  0.34310
E70   E   0.13913  0.18980  0.65690
E71   E   0.13913  0.25000  0.13913
E72   E   0.13913  0.25000  0.36087
E73   E   0.13913  0.25000  0.63913
E74   E   0.13913  0.25000  0.86087
E75   E   0.13913  0.31020  0.15690
E76   E   0.13913  0.31020  0.84310
E77   E   0.13913  0.34310  0.31020
E78   E   0.13913  0.34310  0.68980
E79   E   0.13913  0.36087  0.25000
E80   E   0.13913  0.36087  0.75000
E81   E   0.13913  0.63913  0.25000
E82   E   0.13913  0.63913  0.75000
E83   E   0.13913  0.65690  0.31020
E84   E   0.13913  0.65690  0.68980
E85   E   0.13913  0.68980  0.15690
E86   E   0.13913  0.68980  0.84310
E87   E   0.13913  0.75000  0.13913
E88   E   0.13913  0.75000  0.36087
E89   E   0.13913  0.75000  0.63913
E90   E   0.13913  0.75000  0.86087
E91   E   0.13913  0.81020  0.34310
E92   E   0.13913  0.81020  0.65690
E93   E   0.13913  0.84310  0.18980
E94   E   0.13913  0.84310  0.81020
E95   E   0.13913  0.86087  0.25000
E96   E   0.13913  0.86087  0.75000
E97   E   0.15690  0.13913  0.31020
E98   E   0.15690  0.13913  0.68980
E99   E   0.15690  0.18980  0.13913
E100  E   0.15690  0.18980  0.86087
E101  E   0.15690  0.31020  0.36087
E102  E   0.15690  0.31020  0.63913
E103  E   0.15690  0.36087  0.18980
E104  E   0.15690  0.36087  0.81020
E105  E   0.15690  0.63913  0.18980
E106  E   0.15690  0.63913  0.81020
E107  E   0.15690  0.68980  0.36087
E108  E   0.15690  0.68980  0.63913
E109  E   0.15690  0.81020  0.13913
E110  E   0.15690  0.81020  0.86087
E111  E   0.15690  0.86087  0.31020
E112  E   0.15690  0.86087  0.68980
E113  E   0.16864  0.05311  0.24129
E114  E   0.16864  0.05311  0.75871
E115  E   0.16864  0.24129  0.44689
E116  E   0.16864  0.24129  0.55311
E117  E   0.16864  0.25871  0.05311
E118  E   0.16864  0.25871  0.94689
E119  E   0.16864  0.44689  0.25871
E120  E   0.16864  0.44689  0.74129
E121  E   0.16864  0.55311  0.25871
E122  E   0.16864  0.55311  0.74129
E123  E   0.16864  0.74129  0.05311
E124  E   0.16864  0.74129  0.94689
E125  E   0.16864  0.75871  0.44689
E126  E   0.16864  0.75871  0.55311
E127  E   0.16864  0.94689  0.24129
E128  E   0.16864  0.94689  0.75871
E129  E   0.18641  0.05311  0.30149
E130  E   0.18641  0.05311  0.69851
E131  E   0.18641  0.19851  0.05311
E132  E   0.18641  0.19851  0.94689
E133  E   0.18641  0.30149  0.44689
E134  E   0.18641  0.30149  0.55311
E135  E   0.18641  0.44689  0.19851
E136  E   0.18641  0.44689  0.80149
E137  E   0.18641  0.55311  0.19851
E138  E   0.18641  0.55311  0.80149
E139  E   0.18641  0.69851  0.44689
E140  E   0.18641  0.69851  0.55311
E141  E   0.18641  0.80149  0.05311
E142  E   0.18641  0.80149  0.94689
E143  E   0.18641  0.94689  0.30149
E144  E   0.18641  0.94689  0.69851
E145  E   0.18980  0.10622  0.26777
E146  E   0.18980  0.10622  0.73223
E147  E   0.18980  0.13913  0.15690
E148  E   0.18980  0.13913  0.84310
E149  E   0.18980  0.15690  0.36087
E150  E   0.18980  0.15690  0.63913
E151  E   0.18980  0.23223  0.10622
E152  E   0.18980  0.23223  0.89378
E153  E   0.18980  0.26777  0.39378
E154  E   0.18980  0.26777  0.60622
E155  E   0.18980  0.34310  0.13913
E156  E   0.18980  0.34310  0.86087
E157  E   0.18980  0.36087  0.34310
E158  E   0.18980  0.36087  0.65690
E159  E   0.18980  0.39378  0.23223
E160  E   0.18980  0.39378  0.76777
E161  E   0.18980  0.60622  0.23223
E162  E   0.18980  0.60622  0.76777
E163  E   0.18980  0.63913  0.34310
E164  E   0.18980  0.63913  0.65690
E165  E   0.18980  0.65690  0.13913
E166  E   0.18980  0.65690  0.86087
E167  E   0.18980  0.73223  0.39378
E168  E   0.18980  0.73223  0.60622
E169  E   0.18980  0.76777  0.10622
E170  E   0.18980  0.76777  0.89378
E171  E   0.18980  0.84310  0.36087
E172  E   0.18980  0.84310  0.63913
E173  E   0.18980  0.86087  0.15690
E174  E   0.18980  0.86087  0.84310
E175  E   0.18980  0.89378  0.26777
E176  E   0.18980  0.89378  0.73223
E177  E   0.19511  0.00000  0.22013
E178  E   0.19511  0.00000  0.77987
E179  E   0.19511  0.22013  0.50000
E180  E   0.19511  0.27987  0.00000
E181  E   0.19511  0.50000  0.27987
E182  E   0.19511  0.50000  0.72013
E183  E   0.19511  0.72013  0.00000
E184  E   0.19511  0.77987  0.50000
E185  E   0.19851  0.05311  0.18641
E186  E   0.19851  0.05311  0.81359
E187  E   0.19851  0.18641  0.44689
E188  E   0.19851  0.18641  0.55311
E189  E   0.19851  0.31359  0.05311
E190  E   0.19851  0.31359  0.94689
E191  E   0.19851  0.44689  0.31359
E192  E   0.19851  0.44689  0.68641
E193  E   0.19851  0.55311  0.31359
E194  E   0.19851  0.55311  0.68641
E195  E   0.19851  0.68641  0.05311
E196  E   0.19851  0.68641  0.94689
E197  E   0.19851  0.81359  0.44689
E198  E   0.19851  0.81359  0.55311
E199  E   0.19851  0.94689  0.18641
E200  E   0.19851  0.94689  0.81359
E201  E   0.22013  0.00000  0.30489
E202  E   0.22013  0.00000  0.69511
E203  E   0.22013  0.19511  0.00000
E204  E   0.22013  0.30489  0.50000
E205  E   0.22013  0.50000  0.19511
E206  E   0.22013  0.50000  0.80489
E207  E   0.22013  0.69511  0.50000
E208  E   0.22013  0.80489  0.00000
E209  E   0.23223  0.10622  0.18980
E210  E   0.23223  0.10622  0.81020
E211  E   0.23223  0.18980  0.39378
E212  E   0.23223  0.18980  0.60622
E213  E   0.23223  0.31020  0.10622
E214  E   0.23223  0.31020  0.89378
E215  E   0.23223  0.39378  0.31020
E216  E   0.23223  0.39378  0.68980
E217  E   0.23223  0.60622  0.31020
E218  E   0.23223  0.60622  0.68980
E219  E   0.23223  0.68980  0.10622
E220  E   0.23223  0.68980  0.89378
E221  E   0.23223  0.81020  0.39378
E222  E   0.23223  0.81020  0.60622
E223  E   0.23223  0.89378  0.18980
E224  E   0.23223  0.89378  0.81020
E225  E   0.24129  0.05311  0.33136
E226  E   0.24129  0.05311  0.66864
E227  E   0.24129  0.16864  0.05311
E228  E   0.24129  0.16864  0.94689
E229  E   0.24129  0.33136  0.44689
E230  E   0.24129  0.33136  0.55311
E231  E   0.24129  0.44689  0.16864
E232  E   0.24129  0.44689  0.83136
E233  E   0.24129  0.55311  0.16864
E234  E   0.24129  0.55311  0.83136
E235  E   0.24129  0.66864  0.44689
E236  E   0.24129  0.66864  0.55311
E237  E   0.24129  0.83136  0.05311
E238  E   0.24129  0.83136  0.94689
E239  E   0.24129  0.94689  0.33136
E240  E   0.24129  0.94689  0.66864
E241  E   0.25000  0.13913  0.13913
E242  E   0.25000  0.13913  0.36087
E243  E   0.25000  0.13913  0.63913
E244  E   0.25000  0.13913  0.86087
E245  E   0.25000  0.36087  0.13913
E246  E   0.25000  0.36087  0.36087
E247  E   0.25000  0.36087  0.63913
E248  E   0.25000  0.36087  0.86087
E249  E   0.25000  0.63913  0.13913
E250  E   0.25000  0.63913  0.36087
E251  E   0.25000  0.63913  0.63913
E252  E   0.25000  0.63913  0.86087
E253  E   0.25000  0.86087  0.13913
E254  E   0.25000  0.86087  0.36087
E255  E   0.25000  0.86087  0.63913
E256  E   0.25000  0.86087  0.86087
E257  E   0.25871  0.05311  0.16864
E258  E   0.25871  0.05311  0.83136
E259  E   0.25871  0.16864  0.44689
E260  E   0.25871  0.16864  0.55311
E261  E   0.25871  0.33136  0.05311
E262  E   0.25871  0.33136  0.94689
E263  E   0.25871  0.44689  0.33136
E264  E   0.25871  0.44689  0.66864
E265  E   0.25871  0.55311  0.33136
E266  E   0.25871  0.55311  0.66864
E267  E   0.25871  0.66864  0.05311
E268  E   0.25871  0.66864  0.94689
E269  E   0.25871  0.83136  0.44689
E270  E   0.25871  0.83136  0.55311
E271  E   0.25871  0.94689  0.16864
E272  E   0.25871  0.94689  0.83136
E273  E   0.26777  0.10622  0.31020
E274  E   0.26777  0.10622  0.68980
E275  E   0.26777  0.18980  0.10622
E276  E   0.26777  0.18980  0.89378
E277  E   0.26777  0.31020  0.39378
E278  E   0.26777  0.31020  0.60622
E279  E   0.26777  0.39378  0.18980
E280  E   0.26777  0.39378  0.81020
E281  E   0.26777  0.60622  0.18980
E282  E   0.26777  0.60622  0.81020
E283  E   0.26777  0.68980  0.39378
E284  E   0.26777  0.68980  0.60622
E285  E   0.26777  0.81020  0.10622
E286  E   0.26777  0.81020  0.89378
E287  E   0.26777  0.89378  0.31020
E288  E   0.26777  0.89378  0.68980
E289  E   0.27987  0.00000  0.19511
E290  E   0.27987  0.00000  0.80489
E291  E   0.27987  0.19511  0.50000
E292  E   0.27987  0.30489  0.00000
E293  E   0.27987  0.50000  0.30489
E294  E   0.27987  0.50000  0.69511
E295  E   0.27987  0.69511  0.00000
E296  E   0.27987  0.80489  0.50000
E297  E   0.30149  0.05311  0.31359
E298  E   0.30149  0.05311  0.68641
E299  E   0.30149  0.18641  0.05311
E300  E   0.30149  0.18641  0.94689
E301  E   0.30149  0.31359  0.44689
E302  E   0.30149  0.31359  0.55311
E303  E   0.30149  0.44689  0.18641
E304  E   0.30149  0.44689  0.81359
E305  E   0.30149  0.55311  0.18641
E306  E   0.30149  0.55311  0.81359
E307  E   0.30149  0.68641  0.44689
E308  E   0.30149  0.68641  0.55311
E309  E   0.30149  0.81359  0.05311
E310  E   0.30149  0.81359  0.94689
E311  E   0.30149  0.94689  0.31359
E312  E   0.30149  0.94689  0.68641
E313  E   0.30489  0.00000  0.27987
E314  E   0.30489  0.00000  0.72013
E315  E   0.30489  0.22013  0.00000
E316  E   0.30489  0.27987  0.50000
E317  E   0.30489  0.50000  0.22013
E318  E   0.30489  0.50000  0.77987
E319  E   0.30489  0.72013  0.50000
E320  E   0.30489  0.77987  0.00000
E321  E   0.31020  0.10622  0.23223
E322  E   0.31020  0.10622  0.76777
E323  E   0.31020  0.13913  0.34310
E324  E   0.31020  0.13913  0.65690
E325  E   0.31020  0.15690  0.13913
E326  E   0.31020  0.15690  0.86087
E327  E   0.31020  0.23223  0.39378
E328  E   0.31020  0.23223  0.60622
E329  E   0.31020  0.26777  0.10622
E330  E   0.31020  0.26777  0.89378
E331  E   0.31020  0.34310  0.36087
E332  E   0.31020  0.34310  0.63913
E333  E   0.31020  0.36087  0.15690
E334  E   0.31020  0.36087  0.84310
E335  E   0.31020  0.39378  0.26777
E336  E   0.31020  0.39378  0.73223
E337  E   0.31020  0.60622  0.26777
E338  E   0.31020  0.60622  0.73223
E339  E   0.31020  0.63913  0.15690
E340  E   0.31020  0.63913  0.84310
E341  E   0.31020  0.65690  0.36087
E342  E   0.31020  0.65690  0.63913
E343  E   0.31020  0.73223  0.10622
E344  E   0.31020  0.73223  0.89378
E345  E   0.31020  0.76777  0.39378
E346  E   0.31020  0.76777  0.60622
E347  E   0.31020  0.84310  0.13913
E348  E   0.31020  0.84310  0.86087
E349  E   0.31020  0.86087  0.34310
E350  E   0.31020  0.86087  0.65690
E351  E   0.31020  0.89378  0.23223
E352  E   0.31020  0.89378  0.76777
E353  E   0.31359  0.05311  0.19851
E354  E   0.31359  0.05311  0.80149
E355  E   0.31359  0.19851  0.44689
E356  E   0.31359  0.19851  0.55311
E357  E   0.31359  0.30149  0.05311
E358  E   0.31359  0.30149  0.94689
E359  E   0.31359  0.44689  0.30149
E360  E   0.31359  0.44689  0.69851
E361  E   0.31359  0.55311  0.30149
E362  E   0.31359  0.55311  0.69851
E363  E   0.31359  0.69851  0.05311
E364  E   0.31359  0.69851  0.94689
E365  E   0.31359  0.80149  0.44689
E366  E   0.31359  0.80149  0.55311
E367  E   0.31359  0.94689  0.19851
E368  E   0.31359  0.94689  0.80149
E369  E   0.33136  0.05311  0.25871
E370  E   0.33136  0.05311  0.74129
E371  E   0.33136  0.24129  0.05311
E372  E   0.33136  0.24129  0.94689
E373  E   0.33136  0.25871  0.44689
E374  E   0.33136  0.25871  0.55311
E375  E   0.33136  0.44689  0.24129
E376  E   0.33136  0.44689  0.75871
E377  E   0.33136  0.55311  0.24129
E378  E   0.33136  0.55311  0.75871
E379  E   0.33136  0.74129  0.44689
E380  E   0.33136  0.74129  0.55311
E381  E   0.33136  0.75871  0.05311
E382  E   0.33136  0.75871  0.94689
E383  E   0.33136  0.94689  0.25871
E384  E   0.33136  0.94689  0.74129
E385  E   0.34310  0.13913  0.18980
E386  E   0.34310  0.13913  0.81020
E387  E   0.34310  0.18980  0.36087
E388  E   0.34310  0.18980  0.63913
E389  E   0.34310  0.31020  0.13913
E390  E   0.34310  0.31020  0.86087
E391  E   0.34310  0.36087  0.31020
E392  E   0.34310  0.36087  0.68980
E393  E   0.34310  0.63913  0.31020
E394  E   0.34310  0.63913  0.68980
E395  E   0.34310  0.68980  0.13913
E396  E   0.34310  0.68980  0.86087
E397  E   0.34310  0.81020  0.36087
E398  E   0.34310  0.81020  0.63913
E399  E   0.34310  0.86087  0.18980
E400  E   0.34310  0.86087  0.81020
E401  E   0.36087  0.13913  0.25000
E402  E   0.36087  0.13913  0.75000
E403  E   0.36087  0.15690  0.31020
E404  E   0.36087  0.15690  0.68980
E405  E   0.36087  0.18980  0.15690
E406  E   0.36087  0.18980  0.84310
E407  E   0.36087  0.25000  0.13913
E408  E   0.36087  0.25000  0.36087
E409  E   0.36087  0.25000  0.63913
E410  E   0.36087  0.25000  0.86087
E411  E   0.36087  0.31020  0.34310
E412  E   0.36087  0.31020  0.65690
E413  E   0.36087  0.34310  0.18980
E414  E   0.36087  0.34310  0.81020
E415  E   0.36087  0.36087  0.25000
E416  E   0.36087  0.36087  0.75000
E417  E   0.36087  0.63913  0.25000
E418  E   0.36087  0.63913  0.75000
E419  E   0.36087  0.65690  0.18980
E420  E   0.36087  0.65690  0.81020
E421  E   0.36087  0.68980  0.34310
E422  E   0.36087  0.68980  0.65690
E423  E   0.36087  0.75000  0.13913
E424  E   0.36087  0.75000  0.36087
E425  E   0.36087  0.75000  0.63913
E426  E   0.36087  0.75000  0.86087
E427  E   0.36087  0.81020  0.15690
E428  E   0.36087  0.81020  0.84310
E429  E   0.36087  0.84310  0.31020
E430  E   0.36087  0.84310  0.68980
E431  E   0.36087  0.86087  0.25000
E432  E   0.36087  0.86087  0.75000
E433  E   0.39378  0.18980  0.26777
E434  E   0.39378  0.18980  0.73223
E435  E   0.39378  0.23223  0.18980
E436  E   0.39378  0.23223  0.81020
E437  E   0.39378  0.26777  0.31020
E438  E   0.39378  0.26777  0.68980
E439  E   0.39378  0.31020  0.23223
E440  E   0.39378  0.31020  0.76777
E441  E   0.39378  0.68980  0.23223
E442  E   0.39378  0.68980  0.76777
E443  E   0.39378  0.73223  0.31020
E444  E   0.39378  0.73223  0.68980
E445  E   0.39378  0.76777  0.18980
E446  E   0.39378  0.76777  0.81020
E447  E   0.39378  0.81020  0.26777
E448  E   0.39378  0.81020  0.73223
E449  E   0.44689  0.16864  0.24129
E450  E   0.44689  0.16864  0.75871
E451  E   0.44689  0.18641  0.30149
E452  E   0.44689  0.18641  0.69851
E453  E   0.44689  0.19851  0.18641
E454  E   0.44689  0.19851  0.81359
E455  E   0.44689  0.24129  0.33136
E456  E   0.44689  0.24129  0.66864
E457  E   0.44689  0.25871  0.16864
E458  E   0.44689  0.25871  0.83136
E459  E   0.44689  0.30149  0.31359
E460  E   0.44689  0.30149  0.68641
E461  E   0.44689  0.31359  0.19851
E462  E   0.44689  0.31359  0.80149
E463  E   0.44689  0.33136  0.25871
E464  E   0.44689  0.33136  0.74129
E465  E   0.44689  0.66864  0.25871
E466  E   0.44689  0.66864  0.74129
E467  E   0.44689  0.68641  0.19851
E468  E   0.44689  0.68641  0.80149
E469  E   0.44689  0.69851  0.31359
E470  E   0.44689  0.69851  0.68641
E471  E   0.44689  0.74129  0.16864
E472  E   0.44689  0.74129  0.83136
E473  E   0.44689  0.75871  0.33136
E474  E   0.44689  0.75871  0.66864
E475  E   0.44689  0.80149  0.18641
E476  E   0.44689  0.80149  0.81359
E477  E   0.44689  0.81359  0.30149
E478  E   0.44689  0.81359  0.69851
E479  E   0.44689  0.83136  0.24129
E480  E   0.44689  0.83136  0.75871
E481  E   0.50000  0.19511  0.22013
E482  E   0.50000  0.19511  0.77987
E483  E   0.50000  0.22013  0.30489
E484  E   0.50000  0.22013  0.69511
E485  E   0.50000  0.27987  0.19511
E486  E   0.50000  0.27987  0.80489
E487  E   0.50000  0.30489  0.27987
E488  E   0.50000  0.30489  0.72013
E489  E   0.50000  0.69511  0.27987
E490  E   0.50000  0.69511  0.72013
E491  E   0.50000  0.72013  0.19511
E492  E   0.50000  0.72013  0.80489
E493  E   0.50000  0.77987  0.30489
E494  E   0.50000  0.77987  0.69511
E495  E   0.50000  0.80489  0.22013
E496  E   0.50000  0.80489  0.77987
E497  E   0.55311  0.16864  0.24129
E498  E   0.55311  0.16864  0.75871
E499  E   0.55311  0.18641  0.30149
E500  E   0.55311  0.18641  0.69851
E501  E   0.55311  0.19851  0.18641
E502  E   0.55311  0.19851  0.81359
E503  E   0.55311  0.24129  0.33136
E504  E   0.55311  0.24129  0.66864
E505  E   0.55311  0.25871  0.16864
E506  E   0.55311  0.25871  0.83136
E507  E   0.55311  0.30149  0.31359
E508  E   0.55311  0.30149  0.68641
E509  E   0.55311  0.31359  0.19851
E510  E   0.55311  0.31359  0.80149
E511  E   0.55311  0.33136  0.25871
E512  E   0.55311  0.33136  0.74129
E513  E   0.55311  0.66864  0.25871
E514  E   0.55311  0.66864  0.74129
E515  E   0.55311  0.68641  0.19851
E516  E   0.55311  0.68641  0.80149
E517  E   0.55311  0.69851  0.31359
E518  E   0.55311  0.69851  0.68641
E519  E   0.55311  0.74129  0.16864
E520  E   0.55311  0.74129  0.83136
E521  E   0.55311  0.75871  0.33136
E522  E   0.55311  0.75871  0.66864
E523  E   0.55311  0.80149  0.18641
E524  E   0.55311  0.80149  0.81359
E525  E   0.55311  0.81359  0.30149
E526  E   0.55311  0.81359  0.69851
E527  E   0.55311  0.83136  0.24129
E528  E   0.55311  0.83136  0.75871
E529  E   0.60622  0.18980  0.26777
E530  E   0.60622  0.18980  0.73223
E531  E   0.60622  0.23223  0.18980
E532  E   0.60622  0.23223  0.81020
E533  E   0.60622  0.26777  0.31020
E534  E   0.60622  0.26777  0.68980
E535  E   0.60622  0.31020  0.23223
E536  E   0.60622  0.31020  0.76777
E537  E   0.60622  0.68980  0.23223
E538  E   0.60622  0.68980  0.76777
E539  E   0.60622  0.73223  0.31020
E540  E   0.60622  0.73223  0.68980
E541  E   0.60622  0.76777  0.18980
E542  E   0.60622  0.76777  0.81020
E543  E   0.60622  0.81020  0.26777
E544  E   0.60622  0.81020  0.73223
E545  E   0.63913  0.13913  0.25000
E546  E   0.63913  0.13913  0.75000
E547  E   0.63913  0.15690  0.31020
E548  E   0.63913  0.15690  0.68980
E549  E   0.63913  0.18980  0.15690
E550  E   0.63913  0.18980  0.84310
E551  E   0.63913  0.25000  0.13913
E552  E   0.63913  0.25000  0.36087
E553  E   0.63913  0.25000  0.63913
E554  E   0.63913  0.25000  0.86087
E555  E   0.63913  0.31020  0.34310
E556  E   0.63913  0.31020  0.65690
E557  E   0.63913  0.34310  0.18980
E558  E   0.63913  0.34310  0.81020
E559  E   0.63913  0.36087  0.25000
E560  E   0.63913  0.36087  0.75000
E561  E   0.63913  0.63913  0.25000
E562  E   0.63913  0.63913  0.75000
E563  E   0.63913  0.65690  0.18980
E564  E   0.63913  0.65690  0.81020
E565  E   0.63913  0.68980  0.34310
E566  E   0.63913  0.68980  0.65690
E567  E   0.63913  0.75000  0.13913
E568  E   0.63913  0.75000  0.36087
E569  E   0.63913  0.75000  0.63913
E570  E   0.63913  0.75000  0.86087
E571  E   0.63913  0.81020  0.15690
E572  E   0.63913  0.81020  0.84310
E573  E   0.63913  0.84310  0.31020
E574  E   0.63913  0.84310  0.68980
E575  E   0.63913  0.86087  0.25000
E576  E   0.63913  0.86087  0.75000
E577  E   0.65690  0.13913  0.18980
E578  E   0.65690  0.13913  0.81020
E579  E   0.65690  0.18980  0.36087
E580  E   0.65690  0.18980  0.63913
E581  E   0.65690  0.31020  0.13913
E582  E   0.65690  0.31020  0.86087
E583  E   0.65690  0.36087  0.31020
E584  E   0.65690  0.36087  0.68980
E585  E   0.65690  0.63913  0.31020
E586  E   0.65690  0.63913  0.68980
E587  E   0.65690  0.68980  0.13913
E588  E   0.65690  0.68980  0.86087
E589  E   0.65690  0.81020  0.36087
E590  E   0.65690  0.81020  0.63913
E591  E   0.65690  0.86087  0.18980
E592  E   0.65690  0.86087  0.81020
E593  E   0.66864  0.05311  0.25871
E594  E   0.66864  0.05311  0.74129
E595  E   0.66864  0.24129  0.05311
E596  E   0.66864  0.24129  0.94689
E597  E   0.66864  0.25871  0.44689
E598  E   0.66864  0.25871  0.55311
E599  E   0.66864  0.44689  0.24129
E600  E   0.66864  0.44689  0.75871
E601  E   0.66864  0.55311  0.24129
E602  E   0.66864  0.55311  0.75871
E603  E   0.66864  0.74129  0.44689
E604  E   0.66864  0.74129  0.55311
E605  E   0.66864  0.75871  0.05311
E606  E   0.66864  0.75871  0.94689
E607  E   0.66864  0.94689  0.25871
E608  E   0.66864  0.94689  0.74129
E609  E   0.68641  0.05311  0.19851
E610  E   0.68641  0.05311  0.80149
E611  E   0.68641  0.19851  0.44689
E612  E   0.68641  0.19851  0.55311
E613  E   0.68641  0.30149  0.05311
E614  E   0.68641  0.30149  0.94689
E615  E   0.68641  0.44689  0.30149
E616  E   0.68641  0.44689  0.69851
E617  E   0.68641  0.55311  0.30149
E618  E   0.68641  0.55311  0.69851
E619  E   0.68641  0.69851  0.05311
E620  E   0.68641  0.69851  0.94689
E621  E   0.68641  0.80149  0.44689
E622  E   0.68641  0.80149  0.55311
E623  E   0.68641  0.94689  0.19851
E624  E   0.68641  0.94689  0.80149
E625  E   0.68980  0.10622  0.23223
E626  E   0.68980  0.10622  0.76777
E627  E   0.68980  0.13913  0.34310
E628  E   0.68980  0.13913  0.65690
E629  E   0.68980  0.15690  0.13913
E630  E   0.68980  0.15690  0.86087
E631  E   0.68980  0.23223  0.39378
E632  E   0.68980  0.23223  0.60622
E633  E   0.68980  0.26777  0.10622
E634  E   0.68980  0.26777  0.89378
E635  E   0.68980  0.34310  0.36087
E636  E   0.68980  0.34310  0.63913
E637  E   0.68980  0.36087  0.15690
E638  E   0.68980  0.36087  0.84310
E639  E   0.68980  0.39378  0.26777
E640  E   0.68980  0.39378  0.73223
E641  E   0.68980  0.60622  0.26777
E642  E   0.68980  0.60622  0.73223
E643  E   0.68980  0.63913  0.15690
E644  E   0.68980  0.63913  0.84310
E645  E   0.68980  0.65690  0.36087
E646  E   0.68980  0.65690  0.63913
E647  E   0.68980  0.73223  0.10622
E648  E   0.68980  0.73223  0.89378
E649  E   0.68980  0.76777  0.39378
E650  E   0.68980  0.76777  0.60622
E651  E   0.68980  0.84310  0.13913
E652  E   0.68980  0.84310  0.86087
E653  E   0.68980  0.86087  0.34310
E654  E   0.68980  0.86087  0.65690
E655  E   0.68980  0.89378  0.23223
E656  E   0.68980  0.89378  0.76777
E657  E   0.69511  0.00000  0.27987
E658  E   0.69511  0.00000  0.72013
E659  E   0.69511  0.22013  0.00000
E660  E   0.69511  0.27987  0.50000
E661  E   0.69511  0.50000  0.22013
E662  E   0.69511  0.50000  0.77987
E663  E   0.69511  0.72013  0.50000
E664  E   0.69511  0.77987  0.00000
E665  E   0.69851  0.05311  0.31359
E666  E   0.69851  0.05311  0.68641
E667  E   0.69851  0.18641  0.05311
E668  E   0.69851  0.18641  0.94689
E669  E   0.69851  0.31359  0.44689
E670  E   0.69851  0.31359  0.55311
E671  E   0.69851  0.44689  0.18641
E672  E   0.69851  0.44689  0.81359
E673  E   0.69851  0.55311  0.18641
E674  E   0.69851  0.55311  0.81359
E675  E   0.69851  0.68641  0.44689
E676  E   0.69851  0.68641  0.55311
E677  E   0.69851  0.81359  0.05311
E678  E   0.69851  0.81359  0.94689
E679  E   0.69851  0.94689  0.31359
E680  E   0.69851  0.94689  0.68641
E681  E   0.72013  0.00000  0.19511
E682  E   0.72013  0.00000  0.80489
E683  E   0.72013  0.19511  0.50000
E684  E   0.72013  0.30489  0.00000
E685  E   0.72013  0.50000  0.30489
E686  E   0.72013  0.50000  0.69511
E687  E   0.72013  0.69511  0.00000
E688  E   0.72013  0.80489  0.50000
E689  E   0.73223  0.10622  0.31020
E690  E   0.73223  0.10622  0.68980
E691  E   0.73223  0.18980  0.10622
E692  E   0.73223  0.18980  0.89378
E693  E   0.73223  0.31020  0.39378
E694  E   0.73223  0.31020  0.60622
E695  E   0.73223  0.39378  0.18980
E696  E   0.73223  0.39378  0.81020
E697  E   0.73223  0.60622  0.18980
E698  E   0.73223  0.60622  0.81020
E699  E   0.73223  0.68980  0.39378
E700  E   0.73223  0.68980  0.60622
E701  E   0.73223  0.81020  0.10622
E702  E   0.73223  0.81020  0.89378
E703  E   0.73223  0.89378  0.31020
E704  E   0.73223  0.89378  0.68980
E705  E   0.74129  0.05311  0.16864
E706  E   0.74129  0.05311  0.83136
E707  E   0.74129  0.16864  0.44689
E708  E   0.74129  0.16864  0.55311
E709  E   0.74129  0.33136  0.05311
E710  E   0.74129  0.33136  0.94689
E711  E   0.74129  0.44689  0.33136
E712  E   0.74129  0.44689  0.66864
E713  E   0.74129  0.55311  0.33136
E714  E   0.74129  0.55311  0.66864
E715  E   0.74129  0.66864  0.05311
E716  E   0.74129  0.66864  0.94689
E717  E   0.74129  0.83136  0.44689
E718  E   0.74129  0.83136  0.55311
E719  E   0.74129  0.94689  0.16864
E720  E   0.74129  0.94689  0.83136
E721  E   0.75000  0.13913  0.13913
E722  E   0.75000  0.13913  0.36087
E723  E   0.75000  0.13913  0.63913
E724  E   0.75000  0.13913  0.86087
E725  E   0.75000  0.36087  0.13913
E726  E   0.75000  0.36087  0.36087
E727  E   0.75000  0.36087  0.63913
E728  E   0.75000  0.36087  0.86087
E729  E   0.75000  0.63913  0.13913
E730  E   0.75000  0.63913  0.36087
E731  E   0.75000  0.63913  0.63913
E732  E   0.75000  0.63913  0.86087
E733  E   0.75000  0.86087  0.13913
E734  E   0.75000  0.86087  0.36087
E735  E   0.75000  0.86087  0.63913
E736  E   0.75000  0.86087  0.86087
E737  E   0.75871  0.05311  0.33136
E738  E   0.75871  0.05311  0.66864
E739  E   0.75871  0.16864  0.05311
E740  E   0.75871  0.16864  0.94689
E741  E   0.75871  0.33136  0.44689
E742  E   0.75871  0.33136  0.55311
E743  E   0.75871  0.44689  0.16864
E744  E   0.75871  0.44689  0.83136
E745  E   0.75871  0.55311  0.16864
E746  E   0.75871  0.55311  0.83136
E747  E   0.75871  0.66864  0.44689
E748  E   0.75871  0.66864  0.55311
E749  E   0.75871  0.83136  0.05311
E750  E   0.75871  0.83136  0.94689
E751  E   0.75871  0.94689  0.33136
E752  E   0.75871  0.94689  0.66864
E753  E   0.76777  0.10622  0.18980
E754  E   0.76777  0.10622  0.81020
E755  E   0.76777  0.18980  0.39378
E756  E   0.76777  0.18980  0.60622
E757  E   0.76777  0.31020  0.10622
E758  E   0.76777  0.31020  0.89378
E759  E   0.76777  0.39378  0.31020
E760  E   0.76777  0.39378  0.68980
E761  E   0.76777  0.60622  0.31020
E762  E   0.76777  0.60622  0.68980
E763  E   0.76777  0.68980  0.10622
E764  E   0.76777  0.68980  0.89378
E765  E   0.76777  0.81020  0.39378
E766  E   0.76777  0.81020  0.60622
E767  E   0.76777  0.89378  0.18980
E768  E   0.76777  0.89378  0.81020
E769  E   0.77987  0.00000  0.30489
E770  E   0.77987  0.00000  0.69511
E771  E   0.77987  0.19511  0.00000
E772  E   0.77987  0.30489  0.50000
E773  E   0.77987  0.50000  0.19511
E774  E   0.77987  0.50000  0.80489
E775  E   0.77987  0.69511  0.50000
E776  E   0.77987  0.80489  0.00000
E777  E   0.80149  0.05311  0.18641
E778  E   0.80149  0.05311  0.81359
E779  E   0.80149  0.18641  0.44689
E780  E   0.80149  0.18641  0.55311
E781  E   0.80149  0.31359  0.05311
E782  E   0.80149  0.31359  0.94689
E783  E   0.80149  0.44689  0.31359
E784  E   0.80149  0.44689  0.68641
E785  E   0.80149  0.55311  0.31359
E786  E   0.80149  0.55311  0.68641
E787  E   0.80149  0.68641  0.05311
E788  E   0.80149  0.68641  0.94689
E789  E   0.80149  0.81359  0.44689
E790  E   0.80149  0.81359  0.55311
E791  E   0.80149  0.94689  0.18641
E792  E   0.80149  0.94689  0.81359
E793  E   0.80489  0.00000  0.22013
E794  E   0.80489  0.00000  0.77987
E795  E   0.80489  0.22013  0.50000
E796  E   0.80489  0.27987  0.00000
E797  E   0.80489  0.50000  0.27987
E798  E   0.80489  0.50000  0.72013
E799  E   0.80489  0.72013  0.00000
E800  E   0.80489  0.77987  0.50000
E801  E   0.81020  0.10622  0.26777
E802  E   0.81020  0.10622  0.73223
E803  E   0.81020  0.13913  0.15690
E804  E   0.81020  0.13913  0.84310
E805  E   0.81020  0.15690  0.36087
E806  E   0.81020  0.15690  0.63913
E807  E   0.81020  0.23223  0.10622
E808  E   0.81020  0.23223  0.89378
E809  E   0.81020  0.26777  0.39378
E810  E   0.81020  0.26777  0.60622
E811  E   0.81020  0.34310  0.13913
E812  E   0.81020  0.34310  0.86087
E813  E   0.81020  0.36087  0.34310
E814  E   0.81020  0.36087  0.65690
E815  E   0.81020  0.39378  0.23223
E816  E   0.81020  0.39378  0.76777
E817  E   0.81020  0.60622  0.23223
E818  E   0.81020  0.60622  0.76777
E819  E   0.81020  0.63913  0.34310
E820  E   0.81020  0.63913  0.65690
E821  E   0.81020  0.65690  0.13913
E822  E   0.81020  0.65690  0.86087
E823  E   0.81020  0.73223  0.39378
E824  E   0.81020  0.73223  0.60622
E825  E   0.81020  0.76777  0.10622
E826  E   0.81020  0.76777  0.89378
E827  E   0.81020  0.84310  0.36087
E828  E   0.81020  0.84310  0.63913
E829  E   0.81020  0.86087  0.15690
E830  E   0.81020  0.86087  0.84310
E831  E   0.81020  0.89378  0.26777
E832  E   0.81020  0.89378  0.73223
E833  E   0.81359  0.05311  0.30149
E834  E   0.81359  0.05311  0.69851
E835  E   0.81359  0.19851  0.05311
E836  E   0.81359  0.19851  0.94689
E837  E   0.81359  0.30149  0.44689
E838  E   0.81359  0.30149  0.55311
E839  E   0.81359  0.44689  0.19851
E840  E   0.81359  0.44689  0.80149
E841  E   0.81359  0.55311  0.19851
E842  E   0.81359  0.55311  0.80149
E843  E   0.81359  0.69851  0.44689
E844  E   0.81359  0.69851  0.55311
E845  E   0.81359  0.80149  0.05311
E846  E   0.81359  0.80149  0.94689
E847  E   0.81359  0.94689  0.30149
E848  E   0.81359  0.94689  0.69851
E849  E   0.83136  0.05311  0.24129
E850  E   0.83136  0.05311  0.75871
E851  E   0.83136  0.24129  0.44689
E852  E   0.83136  0.24129  0.55311
E853  E   0.83136  0.25871  0.05311
E854  E   0.83136  0.25871  0.94689
E855  E   0.83136  0.44689  0.25871
E856  E   0.83136  0.44689  0.74129
E857  E   0.83136  0.55311  0.25871
E858  E   0.83136  0.55311  0.74129
E859  E   0.83136  0.74129  0.05311
E860  E   0.83136  0.74129  0.94689
E861  E   0.83136  0.75871  0.44689
E862  E   0.83136  0.75871  0.55311
E863  E   0.83136  0.94689  0.24129
E864  E   0.83136  0.94689  0.75871
E865  E   0.84310  0.13913  0.31020
E866  E   0.84310  0.13913  0.68980
E867  E   0.84310  0.18980  0.13913
E868  E   0.84310  0.18980  0.86087
E869  E   0.84310  0.31020  0.36087
E870  E   0.84310  0.31020  0.63913
E871  E   0.84310  0.36087  0.18980
E872  E   0.84310  0.36087  0.81020
E873  E   0.84310  0.63913  0.18980
E874  E   0.84310  0.63913  0.81020
E875  E   0.84310  0.68980  0.36087
E876  E   0.84310  0.68980  0.63913
E877  E   0.84310  0.81020  0.13913
E878  E   0.84310  0.81020  0.86087
E879  E   0.84310  0.86087  0.31020
E880  E   0.84310  0.86087  0.68980
E881  E   0.86087  0.13913  0.25000
E882  E   0.86087  0.13913  0.75000
E883  E   0.86087  0.15690  0.18980
E884  E   0.86087  0.15690  0.81020
E885  E   0.86087  0.18980  0.34310
E886  E   0.86087  0.18980  0.65690
E887  E   0.86087  0.25000  0.13913
E888  E   0.86087  0.25000  0.36087
E889  E   0.86087  0.25000  0.63913
E890  E   0.86087  0.25000  0.86087
E891  E   0.86087  0.31020  0.15690
E892  E   0.86087  0.31020  0.84310
E893  E   0.86087  0.34310  0.31020
E894  E   0.86087  0.34310  0.68980
E895  E   0.86087  0.36087  0.25000
E896  E   0.86087  0.36087  0.75000
E897  E   0.86087  0.63913  0.25000
E898  E   0.86087  0.63913  0.75000
E899  E   0.86087  0.65690  0.31020
E900  E   0.86087  0.65690  0.68980
E901  E   0.86087  0.68980  0.15690
E902  E   0.86087  0.68980  0.84310
E903  E   0.86087  0.75000  0.13913
E904  E   0.86087  0.75000  0.36087
E905  E   0.86087  0.75000  0.63913
E906  E   0.86087  0.75000  0.86087
E907  E   0.86087  0.81020  0.34310
E908  E   0.86087  0.81020  0.65690
E909  E   0.86087  0.84310  0.18980
E910  E   0.86087  0.84310  0.81020
E911  E   0.86087  0.86087  0.25000
E912  E   0.86087  0.86087  0.75000
E913  E   0.89378  0.18980  0.23223
E914  E   0.89378  0.18980  0.76777
E915  E   0.89378  0.23223  0.31020
E916  E   0.89378  0.23223  0.68980
E917  E   0.89378  0.26777  0.18980
E918  E   0.89378  0.26777  0.81020
E919  E   0.89378  0.31020  0.26777
E920  E   0.89378  0.31020  0.73223
E921  E   0.89378  0.68980  0.26777
E922  E   0.89378  0.68980  0.73223
E923  E   0.89378  0.73223  0.18980
E924  E   0.89378  0.73223  0.81020
E925  E   0.89378  0.76777  0.31020
E926  E   0.89378  0.76777  0.68980
E927  E   0.89378  0.81020  0.23223
E928  E   0.89378  0.81020  0.76777
E929  E   0.94689  0.16864  0.25871
E930  E   0.94689  0.16864  0.74129
E931  E   0.94689  0.18641  0.19851
E932  E   0.94689  0.18641  0.80149
E933  E   0.94689  0.19851  0.31359
E934  E   0.94689  0.19851  0.68641
E935  E   0.94689  0.24129  0.16864
E936  E   0.94689  0.24129  0.83136
E937  E   0.94689  0.25871  0.33136
E938  E   0.94689  0.25871  0.66864
E939  E   0.94689  0.30149  0.18641
E940  E   0.94689  0.30149  0.81359
E941  E   0.94689  0.31359  0.30149
E942  E   0.94689  0.31359  0.69851
E943  E   0.94689  0.33136  0.24129
E944  E   0.94689  0.33136  0.75871
E945  E   0.94689  0.66864  0.24129
E946  E   0.94689  0.66864  0.75871
E947  E   0.94689  0.68641  0.30149
E948  E   0.94689  0.68641  0.69851
E949  E   0.94689  0.69851  0.18641
E950  E   0.94689  0.69851  0.81359
E951  E   0.94689  0.74129  0.33136
E952  E   0.94689  0.74129  0.66864
E953  E   0.94689  0.75871  0.16864
E954  E   0.94689  0.75871  0.83136
E955  E   0.94689  0.80149  0.31359
E956  E   0.94689  0.80149  0.68641
E957  E   0.94689  0.81359  0.19851
E958  E   0.94689  0.81359  0.80149
E959  E   0.94689  0.83136  0.25871
E960  E   0.94689  0.83136  0.74129
loop_
