data_phi_Cmcm  hall_number: 298, V_con: 4, EC_con: 4
_audit_creation_date              2025-03-05
_audit_creation_method            'MOFbuilder_1.0'
_symmetry_space_group_name_H-M    'P1'
_symmetry_Int_Tables_number       1
_symmetry_cell_setting            triclinic
loop_
_symmetry_equiv_pos_as_xyz
  x,y,z
_cell_length_a                    33.3722
_cell_length_b                    44.5833
_cell_length_c                    44.528
_cell_angle_alpha                 90.0
_cell_angle_beta                  90.0
_cell_angle_gamma                 90.0
loop_
_atom_site_label
_atom_site_type_symbol
_atom_site_fract_x
_atom_site_fract_y
_atom_site_fract_z
V1    V   0.14983  0.11134  0.01342
V2    V   0.14983  0.11134  0.48658
V3    V   0.14983  0.88866  0.51342
V4    V   0.14983  0.88866  0.98658
V5    V   0.35017  0.38866  0.51342
V6    V   0.35017  0.38866  0.98658
V7    V   0.35017  0.61134  0.01342
V8    V   0.35017  0.61134  0.48658
V9    V   0.64983  0.38866  0.51342
V10   V   0.64983  0.38866  0.98658
V11   V   0.64983  0.61134  0.01342
V12   V   0.64983  0.61134  0.48658
V13   V   0.85017  0.11134  0.01342
V14   V   0.85017  0.11134  0.48658
V15   V   0.85017  0.88866  0.51342
V16   V   0.85017  0.88866  0.98658
EC1    EC   0.14983  0.27726  0.63771
EC2    EC   0.14983  0.27726  0.86229
EC3    EC   0.14983  0.72274  0.13771
EC4    EC   0.14983  0.72274  0.36229
EC5    EC   0.35017  0.22274  0.13771
EC6    EC   0.35017  0.22274  0.36229
EC7    EC   0.35017  0.77726  0.63771
EC8    EC   0.35017  0.77726  0.86229
EC9    EC   0.64983  0.22274  0.13771
EC10   EC   0.64983  0.22274  0.36229
EC11   EC   0.64983  0.77726  0.63771
EC12   EC   0.64983  0.77726  0.86229
EC13   EC   0.85017  0.27726  0.63771
EC14   EC   0.85017  0.27726  0.86229
EC15   EC   0.85017  0.72274  0.13771
EC16   EC   0.85017  0.72274  0.36229
E1    E   0.00000  0.11134  0.01342
E2    E   0.00000  0.11134  0.48658
E3    E   0.00000  0.27726  0.63771
E4    E   0.00000  0.27726  0.86229
E5    E   0.00000  0.72274  0.13771
E6    E   0.00000  0.72274  0.36229
E7    E   0.00000  0.88866  0.51342
E8    E   0.00000  0.88866  0.98658
E9    E   0.14983  0.00000  0.00000
E10   E   0.14983  0.00000  0.50000
E11   E   0.14983  0.19430  0.56214
E12   E   0.14983  0.19430  0.93786
E13   E   0.14983  0.80570  0.06214
E14   E   0.14983  0.80570  0.43786
E15   E   0.14983  0.27726  0.75000
E16   E   0.14983  0.72274  0.25000
E17   E   0.25000  0.16704  0.07557
E18   E   0.25000  0.16704  0.42443
E19   E   0.25000  0.33296  0.57557
E20   E   0.25000  0.33296  0.92443
E21   E   0.25000  0.66704  0.07557
E22   E   0.25000  0.66704  0.42443
E23   E   0.25000  0.83296  0.57557
E24   E   0.25000  0.83296  0.92443
E25   E   0.35017  0.22274  0.25000
E26   E   0.35017  0.30570  0.06214
E27   E   0.35017  0.30570  0.43786
E28   E   0.35017  0.50000  0.00000
E29   E   0.35017  0.50000  0.50000
E30   E   0.35017  0.69430  0.56214
E31   E   0.35017  0.69430  0.93786
E32   E   0.35017  0.77726  0.75000
E33   E   0.50000  0.22274  0.13771
E34   E   0.50000  0.22274  0.36229
E35   E   0.50000  0.38866  0.51342
E36   E   0.50000  0.38866  0.98658
E37   E   0.50000  0.61134  0.01342
E38   E   0.50000  0.61134  0.48658
E39   E   0.50000  0.77726  0.63771
E40   E   0.50000  0.77726  0.86229
E41   E   0.64983  0.22274  0.25000
E42   E   0.64983  0.30570  0.06214
E43   E   0.64983  0.30570  0.43786
E44   E   0.64983  0.50000  0.00000
E45   E   0.64983  0.50000  0.50000
E46   E   0.64983  0.69430  0.56214
E47   E   0.64983  0.69430  0.93786
E48   E   0.64983  0.77726  0.75000
E49   E   0.75000  0.16704  0.07557
E50   E   0.75000  0.16704  0.42443
E51   E   0.75000  0.33296  0.57557
E52   E   0.75000  0.33296  0.92443
E53   E   0.75000  0.66704  0.07557
E54   E   0.75000  0.66704  0.42443
E55   E   0.75000  0.83296  0.57557
E56   E   0.75000  0.83296  0.92443
E57   E   0.85017  0.00000  0.00000
E58   E   0.85017  0.00000  0.50000
E59   E   0.85017  0.19430  0.56214
E60   E   0.85017  0.19430  0.93786
E61   E   0.85017  0.27726  0.75000
E62   E   0.85017  0.72274  0.25000
E63   E   0.85017  0.80570  0.06214
E64   E   0.85017  0.80570  0.43786
loop_
