data_qsm_R-3m:H  hall_number: 166, V_con: 7, EC_con: 5
_audit_creation_date              2025-03-05
_audit_creation_method            'MOFbuilder_1.0'
_symmetry_space_group_name_H-M    'P1'
_symmetry_Int_Tables_number       1
_symmetry_cell_setting            triclinic
loop_
_symmetry_equiv_pos_as_xyz
  x,y,z
_cell_length_a                    61.4906
_cell_length_b                    61.4906
_cell_length_c                    19.7997
_cell_angle_alpha                 90.0
_cell_angle_beta                  90.0
_cell_angle_gamma                 120.0
loop_
_atom_site_label
_atom_site_type_symbol
_atom_site_fract_x
_atom_site_fract_y
_atom_site_fract_z
V1    V   0.00000  0.41371  0.00000
V2    V   0.00000  0.91371  0.50000
V3    V   0.50000  0.08629  0.50000
V4    V   0.50000  0.58629  0.00000
EC1    EC   0.00000  0.42370  0.50000
EC2    EC   0.00000  0.92370  0.00000
EC3    EC   0.50000  0.07630  0.00000
EC4    EC   0.50000  0.57630  0.50000
E1    E   0.00000  0.00000  0.00000
E2    E   0.00000  0.00000  0.50000
E3    E   0.00000  0.41870  0.25000
E4    E   0.00000  0.50000  0.00000
E5    E   0.00000  0.50000  0.50000
E6    E   0.00000  0.91870  0.25000
E7    E   0.04019  0.37352  0.16667
E8    E   0.04019  0.87352  0.33333
E9    E   0.04518  0.37352  0.91667
E10   E   0.04518  0.87352  0.58333
E11   E   0.50000  0.00000  0.00000
E12   E   0.50000  0.00000  0.50000
E13   E   0.50000  0.08130  0.75000
E14   E   0.50000  0.50000  0.00000
E15   E   0.50000  0.50000  0.50000
E16   E   0.50000  0.58130  0.75000
E17   E   0.54019  0.12648  0.66667
E18   E   0.54019  0.62648  0.83333
E19   E   0.54518  0.12648  0.41667
E20   E   0.54518  0.62648  0.08333
loop_
