data_reo-e_Pm-3m  hall_number: 517, V_con: 6
_audit_creation_date              2025-03-05
_audit_creation_method            'MOFbuilder_1.0'
_symmetry_space_group_name_H-M    'P1'
_symmetry_Int_Tables_number       1
_symmetry_cell_setting            triclinic
loop_
_symmetry_equiv_pos_as_xyz
  x,y,z
_cell_length_a                    24.142100000000003
_cell_length_b                    24.142100000000003
_cell_length_c                    24.142100000000003
_cell_angle_alpha                 90.0
_cell_angle_beta                  90.0
_cell_angle_gamma                 90.0
loop_
_atom_site_label
_atom_site_type_symbol
_atom_site_fract_x
_atom_site_fract_y
_atom_site_fract_z
V1    V   0.20711  0.20711  0.50000
V2    V   0.20711  0.50000  0.20711
V3    V   0.20711  0.50000  0.79289
V4    V   0.20711  0.79289  0.50000
V5    V   0.50000  0.20711  0.20711
V6    V   0.50000  0.20711  0.79289
V7    V   0.50000  0.79289  0.20711
V8    V   0.50000  0.79289  0.79289
V9    V   0.79289  0.20711  0.50000
V10   V   0.79289  0.50000  0.20711
V11   V   0.79289  0.50000  0.79289
V12   V   0.79289  0.79289  0.50000
E1    E   0.00000  0.20711  0.50000
E2    E   0.00000  0.50000  0.20711
E3    E   0.00000  0.50000  0.79289
E4    E   0.00000  0.79289  0.50000
E5    E   0.20711  0.00000  0.50000
E6    E   0.20711  0.35355  0.35355
E7    E   0.20711  0.35355  0.64645
E8    E   0.20711  0.50000  0.00000
E9    E   0.20711  0.64645  0.35355
E10   E   0.20711  0.64645  0.64645
E11   E   0.35355  0.20711  0.35355
E12   E   0.35355  0.20711  0.64645
E13   E   0.35355  0.35355  0.20711
E14   E   0.35355  0.35355  0.79289
E15   E   0.35355  0.64645  0.20711
E16   E   0.35355  0.64645  0.79289
E17   E   0.35355  0.79289  0.35355
E18   E   0.35355  0.79289  0.64645
E19   E   0.50000  0.00000  0.20711
E20   E   0.50000  0.00000  0.79289
E21   E   0.50000  0.20711  0.00000
E22   E   0.50000  0.79289  0.00000
E23   E   0.64645  0.20711  0.35355
E24   E   0.64645  0.20711  0.64645
E25   E   0.64645  0.35355  0.20711
E26   E   0.64645  0.35355  0.79289
E27   E   0.64645  0.64645  0.20711
E28   E   0.64645  0.64645  0.79289
E29   E   0.64645  0.79289  0.35355
E30   E   0.64645  0.79289  0.64645
E31   E   0.79289  0.00000  0.50000
E32   E   0.79289  0.35355  0.35355
E33   E   0.79289  0.35355  0.64645
E34   E   0.79289  0.50000  0.00000
E35   E   0.79289  0.64645  0.35355
E36   E   0.79289  0.64645  0.64645
loop_
