data_sab_I4cm  hall_number: 385, V_con: 6, EC_con: 3
_audit_creation_date              2025-03-05
_audit_creation_method            'MOFbuilder_1.0'
_symmetry_space_group_name_H-M    'P1'
_symmetry_Int_Tables_number       1
_symmetry_cell_setting            triclinic
loop_
_symmetry_equiv_pos_as_xyz
  x,y,z
_cell_length_a                    35.6247
_cell_length_b                    35.6247
_cell_length_c                    25.7039
_cell_angle_alpha                 90.0
_cell_angle_beta                  90.0
_cell_angle_gamma                 90.0
loop_
_atom_site_label
_atom_site_type_symbol
_atom_site_fract_x
_atom_site_fract_y
_atom_site_fract_z
V1    V   0.18042  0.31958  0.85607
V2    V   0.18042  0.68042  0.35607
V3    V   0.18042  0.31958  0.85607
V4    V   0.18042  0.68042  0.35607
V5    V   0.31958  0.18042  0.35607
V6    V   0.31958  0.18042  0.35607
V7    V   0.31958  0.81958  0.85607
V8    V   0.68042  0.18042  0.85607
V9    V   0.68042  0.18042  0.85607
V10   V   0.68042  0.81958  0.35607
V11   V   0.81958  0.31958  0.35607
V12   V   0.81958  0.68042  0.85607
EC1    EC   0.07651  0.27492  0.50000
EC2    EC   0.07651  0.72508  0.00000
EC3    EC   0.22508  0.42349  0.50000
EC4    EC   0.22508  0.57651  0.00000
EC5    EC   0.27492  0.07651  0.00000
EC6    EC   0.27492  0.92349  0.50000
EC7    EC   0.42349  0.22508  0.00000
EC8    EC   0.42349  0.77492  0.50000
EC9    EC   0.57651  0.22508  0.50000
EC10   EC   0.57651  0.77492  0.00000
EC11   EC   0.72508  0.07651  0.50000
EC12   EC   0.72508  0.92349  0.00000
EC13   EC   0.77492  0.42349  0.00000
EC14   EC   0.77492  0.57651  0.50000
EC15   EC   0.92349  0.27492  0.00000
EC16   EC   0.92349  0.72508  0.50000
E1    E   0.05196  0.29725  0.92803
E2    E   0.05196  0.70275  0.42803
E3    E   0.12847  0.29725  0.67803
E4    E   0.12847  0.70275  0.17803
E5    E   0.19804  0.22767  0.42803
E6    E   0.19804  0.77233  0.92803
E7    E   0.20275  0.37153  0.67803
E8    E   0.20275  0.44804  0.92803
E9    E   0.20275  0.55196  0.42803
E10   E   0.20275  0.62847  0.17803
E11   E   0.22767  0.19804  0.92803
E12   E   0.22767  0.80196  0.42803
E13   E   0.27233  0.30196  0.42803
E14   E   0.27233  0.69804  0.92803
E15   E   0.29725  0.05196  0.42803
E16   E   0.29725  0.12847  0.17803
E17   E   0.29725  0.87153  0.67803
E18   E   0.29725  0.94804  0.92803
E19   E   0.30196  0.27233  0.92803
E20   E   0.30196  0.72767  0.42803
E21   E   0.37153  0.20275  0.17803
E22   E   0.37153  0.79725  0.67803
E23   E   0.44804  0.20275  0.42803
E24   E   0.44804  0.79725  0.92803
E25   E   0.55196  0.20275  0.92803
E26   E   0.55196  0.79725  0.42803
E27   E   0.62847  0.20275  0.67803
E28   E   0.62847  0.79725  0.17803
E29   E   0.69804  0.27233  0.42803
E30   E   0.69804  0.72767  0.92803
E31   E   0.70275  0.05196  0.92803
E32   E   0.70275  0.12847  0.67803
E33   E   0.70275  0.87153  0.17803
E34   E   0.70275  0.94804  0.42803
E35   E   0.72767  0.30196  0.92803
E36   E   0.72767  0.69804  0.42803
E37   E   0.77233  0.19804  0.42803
E38   E   0.77233  0.80196  0.92803
E39   E   0.79725  0.37153  0.17803
E40   E   0.79725  0.44804  0.42803
E41   E   0.79725  0.55196  0.92803
E42   E   0.79725  0.62847  0.67803
E43   E   0.80196  0.22767  0.92803
E44   E   0.80196  0.77233  0.42803
E45   E   0.87153  0.29725  0.17803
E46   E   0.87153  0.70275  0.67803
E47   E   0.94804  0.29725  0.42803
E48   E   0.94804  0.70275  0.92803
loop_
