data_sat_R-3m:H  hall_number: 166, V_con: 4, EC_con: 4
_audit_creation_date              2025-03-05
_audit_creation_method            'MOFbuilder_1.0'
_symmetry_space_group_name_H-M    'P1'
_symmetry_Int_Tables_number       1
_symmetry_cell_setting            triclinic
loop_
_symmetry_equiv_pos_as_xyz
  x,y,z
_cell_length_a                    41.601
_cell_length_b                    41.601
_cell_length_c                    96.8305
_cell_angle_alpha                 90.0
_cell_angle_beta                  90.0
_cell_angle_gamma                 120.0
loop_
_atom_site_label
_atom_site_type_symbol
_atom_site_fract_x
_atom_site_fract_y
_atom_site_fract_z
V1    V   0.00000  0.24038  0.20501
V2    V   0.00000  0.74038  0.29499
V3    V   0.50000  0.25962  0.70501
V4    V   0.50000  0.75962  0.79499
EC1    EC   0.24038  0.00000  0.05164
EC2    EC   0.24038  0.50000  0.44836
EC3    EC   0.74038  0.00000  0.94836
EC4    EC   0.74038  0.50000  0.55164
E1    E   0.12019  0.24038  0.20501
E2    E   0.12019  0.37981  0.44836
E3    E   0.12019  0.74038  0.29499
E4    E   0.12019  0.87981  0.05164
E5    E   0.24038  0.00000  0.00000
E6    E   0.24038  0.12019  0.05164
E7    E   0.24038  0.50000  0.50000
E8    E   0.24038  0.62019  0.44836
E9    E   0.33333  0.04648  0.08998
E10   E   0.33333  0.54648  0.41002
E11   E   0.37981  0.37981  0.70501
E12   E   0.37981  0.87981  0.79499
E13   E   0.45352  0.21314  0.66667
E14   E   0.45352  0.71314  0.83333
E15   E   0.62019  0.12019  0.94836
E16   E   0.62019  0.25962  0.70501
E17   E   0.62019  0.62019  0.55164
E18   E   0.62019  0.75962  0.79499
E19   E   0.74038  0.00000  0.00000
E20   E   0.74038  0.37981  0.55164
E21   E   0.74038  0.50000  0.50000
E22   E   0.74038  0.87981  0.94836
E23   E   0.83333  0.45352  0.58998
E24   E   0.83333  0.95352  0.91002
E25   E   0.87981  0.12019  0.20501
E26   E   0.87981  0.62019  0.29499
E27   E   0.95352  0.28686  0.16667
E28   E   0.95352  0.78686  0.33333
loop_
