data_scu-g_P4/mcc  hall_number: 401, V_con: 5, EC_con: 3
_audit_creation_date              2025-03-05
_audit_creation_method            'MOFbuilder_1.0'
_symmetry_space_group_name_H-M    'P1'
_symmetry_Int_Tables_number       1
_symmetry_cell_setting            triclinic
loop_
_symmetry_equiv_pos_as_xyz
  x,y,z
_cell_length_a                    39.3447
_cell_length_b                    39.3447
_cell_length_c                    58.4224
_cell_angle_alpha                 90.0
_cell_angle_beta                  90.0
_cell_angle_gamma                 90.0
loop_
_atom_site_label
_atom_site_type_symbol
_atom_site_fract_x
_atom_site_fract_y
_atom_site_fract_z
V1    V   0.33396  0.43122  0.17803
V2    V   0.33396  0.43122  0.82197
V3    V   0.33396  0.56878  0.32197
V4    V   0.33396  0.56878  0.67803
V5    V   0.43122  0.33396  0.32197
V6    V   0.43122  0.33396  0.67803
V7    V   0.43122  0.66604  0.17803
V8    V   0.43122  0.66604  0.82197
V9    V   0.56878  0.33396  0.17803
V10   V   0.56878  0.33396  0.82197
V11   V   0.56878  0.66604  0.32197
V12   V   0.56878  0.66604  0.67803
V13   V   0.66604  0.43122  0.32197
V14   V   0.66604  0.43122  0.67803
V15   V   0.66604  0.56878  0.17803
V16   V   0.66604  0.56878  0.82197
EC1    EC   0.12478  0.47591  0.08558
EC2    EC   0.12478  0.47591  0.91442
EC3    EC   0.12478  0.52409  0.41442
EC4    EC   0.12478  0.52409  0.58558
EC5    EC   0.47591  0.12478  0.41442
EC6    EC   0.47591  0.12478  0.58558
EC7    EC   0.47591  0.87522  0.08558
EC8    EC   0.47591  0.87522  0.91442
EC9    EC   0.52409  0.12478  0.08558
EC10   EC   0.52409  0.12478  0.91442
EC11   EC   0.52409  0.87522  0.41442
EC12   EC   0.52409  0.87522  0.58558
EC13   EC   0.87522  0.47591  0.41442
EC14   EC   0.87522  0.47591  0.58558
EC15   EC   0.87522  0.52409  0.08558
EC16   EC   0.87522  0.52409  0.91442
E1    E   0.00000  0.50000  0.08558
E2    E   0.00000  0.50000  0.41442
E3    E   0.00000  0.50000  0.58558
E4    E   0.00000  0.50000  0.91442
E5    E   0.12478  0.47591  0.00000
E6    E   0.12478  0.52409  0.50000
E7    E   0.22937  0.45357  0.13181
E8    E   0.22937  0.45357  0.86819
E9    E   0.22937  0.54643  0.36819
E10   E   0.22937  0.54643  0.63181
E11   E   0.33396  0.50000  0.25000
E12   E   0.33396  0.50000  0.75000
E13   E   0.38259  0.38259  0.25000
E14   E   0.38259  0.38259  0.75000
E15   E   0.38259  0.45137  0.32197
E16   E   0.38259  0.45137  0.67803
E17   E   0.38259  0.54863  0.17803
E18   E   0.38259  0.54863  0.82197
E19   E   0.38259  0.61741  0.25000
E20   E   0.38259  0.61741  0.75000
E21   E   0.45137  0.38259  0.17803
E22   E   0.45137  0.38259  0.82197
E23   E   0.45137  0.61741  0.32197
E24   E   0.45137  0.61741  0.67803
E25   E   0.45357  0.22937  0.36819
E26   E   0.45357  0.22937  0.63181
E27   E   0.45357  0.77063  0.13181
E28   E   0.45357  0.77063  0.86819
E29   E   0.47591  0.12478  0.50000
E30   E   0.47591  0.87522  0.00000
E31   E   0.50000  0.00000  0.08558
E32   E   0.50000  0.00000  0.41442
E33   E   0.50000  0.00000  0.58558
E34   E   0.50000  0.00000  0.91442
E35   E   0.50000  0.33396  0.25000
E36   E   0.50000  0.33396  0.75000
E37   E   0.50000  0.66604  0.25000
E38   E   0.50000  0.66604  0.75000
E39   E   0.52409  0.12478  0.00000
E40   E   0.52409  0.87522  0.50000
E41   E   0.54643  0.22937  0.13181
E42   E   0.54643  0.22937  0.86819
E43   E   0.54643  0.77063  0.36819
E44   E   0.54643  0.77063  0.63181
E45   E   0.54863  0.38259  0.32197
E46   E   0.54863  0.38259  0.67803
E47   E   0.54863  0.61741  0.17803
E48   E   0.54863  0.61741  0.82197
E49   E   0.61741  0.38259  0.25000
E50   E   0.61741  0.38259  0.75000
E51   E   0.61741  0.45137  0.17803
E52   E   0.61741  0.45137  0.82197
E53   E   0.61741  0.54863  0.32197
E54   E   0.61741  0.54863  0.67803
E55   E   0.61741  0.61741  0.25000
E56   E   0.61741  0.61741  0.75000
E57   E   0.66604  0.50000  0.25000
E58   E   0.66604  0.50000  0.75000
E59   E   0.77063  0.45357  0.36819
E60   E   0.77063  0.45357  0.63181
E61   E   0.77063  0.54643  0.13181
E62   E   0.77063  0.54643  0.86819
E63   E   0.87522  0.47591  0.50000
E64   E   0.87522  0.52409  0.00000
loop_
