data_sdt_Im-3m  hall_number: 529, V_con: 4, EC_con: 4
_audit_creation_date              2025-03-05
_audit_creation_method            'MOFbuilder_1.0'
_symmetry_space_group_name_H-M    'P1'
_symmetry_Int_Tables_number       1
_symmetry_cell_setting            triclinic
loop_
_symmetry_equiv_pos_as_xyz
  x,y,z
_cell_length_a                    46.1728
_cell_length_b                    46.1728
_cell_length_c                    46.1728
_cell_angle_alpha                 90.0
_cell_angle_beta                  90.0
_cell_angle_gamma                 90.0
loop_
_atom_site_label
_atom_site_type_symbol
_atom_site_fract_x
_atom_site_fract_y
_atom_site_fract_z
V1    V   0.00000  0.25000  0.50000
V2    V   0.00000  0.50000  0.25000
V3    V   0.00000  0.50000  0.75000
V4    V   0.00000  0.75000  0.50000
V5    V   0.25000  0.00000  0.50000
V6    V   0.25000  0.50000  0.00000
V7    V   0.50000  0.00000  0.25000
V8    V   0.50000  0.00000  0.75000
V9    V   0.50000  0.25000  0.00000
V10   V   0.50000  0.75000  0.00000
V11   V   0.75000  0.00000  0.50000
V12   V   0.75000  0.50000  0.00000
EC1    EC   0.00000  0.15314  0.30629
EC2    EC   0.00000  0.15314  0.69371
EC3    EC   0.00000  0.30629  0.15314
EC4    EC   0.00000  0.30629  0.84686
EC5    EC   0.00000  0.69371  0.15314
EC6    EC   0.00000  0.69371  0.84686
EC7    EC   0.00000  0.84686  0.30629
EC8    EC   0.00000  0.84686  0.69371
EC9    EC   0.15314  0.00000  0.30629
EC10   EC   0.15314  0.00000  0.69371
EC11   EC   0.15314  0.30629  0.00000
EC12   EC   0.15314  0.69371  0.00000
EC13   EC   0.19371  0.34686  0.50000
EC14   EC   0.19371  0.50000  0.34686
EC15   EC   0.19371  0.50000  0.65314
EC16   EC   0.19371  0.65314  0.50000
EC17   EC   0.30629  0.00000  0.15314
EC18   EC   0.30629  0.00000  0.84686
EC19   EC   0.30629  0.15314  0.00000
EC20   EC   0.30629  0.84686  0.00000
EC21   EC   0.34686  0.19371  0.50000
EC22   EC   0.34686  0.50000  0.19371
EC23   EC   0.34686  0.50000  0.80629
EC24   EC   0.34686  0.80629  0.50000
EC25   EC   0.50000  0.19371  0.34686
EC26   EC   0.50000  0.19371  0.65314
EC27   EC   0.50000  0.34686  0.19371
EC28   EC   0.50000  0.34686  0.80629
EC29   EC   0.50000  0.65314  0.19371
EC30   EC   0.50000  0.65314  0.80629
EC31   EC   0.50000  0.80629  0.34686
EC32   EC   0.50000  0.80629  0.65314
EC33   EC   0.65314  0.19371  0.50000
EC34   EC   0.65314  0.50000  0.19371
EC35   EC   0.65314  0.50000  0.80629
EC36   EC   0.65314  0.80629  0.50000
EC37   EC   0.69371  0.00000  0.15314
EC38   EC   0.69371  0.00000  0.84686
EC39   EC   0.69371  0.15314  0.00000
EC40   EC   0.69371  0.84686  0.00000
EC41   EC   0.80629  0.34686  0.50000
EC42   EC   0.80629  0.50000  0.34686
EC43   EC   0.80629  0.50000  0.65314
EC44   EC   0.80629  0.65314  0.50000
EC45   EC   0.84686  0.00000  0.30629
EC46   EC   0.84686  0.00000  0.69371
EC47   EC   0.84686  0.30629  0.00000
EC48   EC   0.84686  0.69371  0.00000
E1    E   0.00000  0.20157  0.40314
E2    E   0.00000  0.20157  0.59686
E3    E   0.00000  0.22972  0.22972
E4    E   0.00000  0.22972  0.77028
E5    E   0.00000  0.40314  0.20157
E6    E   0.00000  0.40314  0.79843
E7    E   0.00000  0.59686  0.20157
E8    E   0.00000  0.59686  0.79843
E9    E   0.00000  0.77028  0.22972
E10   E   0.00000  0.77028  0.77028
E11   E   0.00000  0.79843  0.40314
E12   E   0.00000  0.79843  0.59686
E13   E   0.07657  0.07657  0.30629
E14   E   0.07657  0.07657  0.69371
E15   E   0.07657  0.30629  0.07657
E16   E   0.07657  0.30629  0.92343
E17   E   0.07657  0.69371  0.07657
E18   E   0.07657  0.69371  0.92343
E19   E   0.07657  0.92343  0.30629
E20   E   0.07657  0.92343  0.69371
E21   E   0.09686  0.29843  0.50000
E22   E   0.09686  0.50000  0.29843
E23   E   0.09686  0.50000  0.70157
E24   E   0.09686  0.70157  0.50000
E25   E   0.19371  0.42343  0.42343
E26   E   0.19371  0.42343  0.57657
E27   E   0.19371  0.57657  0.42343
E28   E   0.19371  0.57657  0.57657
E29   E   0.20157  0.00000  0.40314
E30   E   0.20157  0.00000  0.59686
E31   E   0.20157  0.40314  0.00000
E32   E   0.20157  0.59686  0.00000
E33   E   0.22972  0.00000  0.22972
E34   E   0.22972  0.00000  0.77028
E35   E   0.22972  0.22972  0.00000
E36   E   0.22972  0.77028  0.00000
E37   E   0.27028  0.27028  0.50000
E38   E   0.27028  0.50000  0.27028
E39   E   0.27028  0.50000  0.72972
E40   E   0.27028  0.72972  0.50000
E41   E   0.29843  0.09686  0.50000
E42   E   0.29843  0.50000  0.09686
E43   E   0.29843  0.50000  0.90314
E44   E   0.29843  0.90314  0.50000
E45   E   0.30629  0.07657  0.07657
E46   E   0.30629  0.07657  0.92343
E47   E   0.30629  0.92343  0.07657
E48   E   0.30629  0.92343  0.92343
E49   E   0.40314  0.00000  0.20157
E50   E   0.40314  0.00000  0.79843
E51   E   0.40314  0.20157  0.00000
E52   E   0.40314  0.79843  0.00000
E53   E   0.42343  0.19371  0.42343
E54   E   0.42343  0.19371  0.57657
E55   E   0.42343  0.42343  0.19371
E56   E   0.42343  0.42343  0.80629
E57   E   0.42343  0.57657  0.19371
E58   E   0.42343  0.57657  0.80629
E59   E   0.42343  0.80629  0.42343
E60   E   0.42343  0.80629  0.57657
E61   E   0.50000  0.09686  0.29843
E62   E   0.50000  0.09686  0.70157
E63   E   0.50000  0.27028  0.27028
E64   E   0.50000  0.27028  0.72972
E65   E   0.50000  0.29843  0.09686
E66   E   0.50000  0.29843  0.90314
E67   E   0.50000  0.70157  0.09686
E68   E   0.50000  0.70157  0.90314
E69   E   0.50000  0.72972  0.27028
E70   E   0.50000  0.72972  0.72972
E71   E   0.50000  0.90314  0.29843
E72   E   0.50000  0.90314  0.70157
E73   E   0.57657  0.19371  0.42343
E74   E   0.57657  0.19371  0.57657
E75   E   0.57657  0.42343  0.19371
E76   E   0.57657  0.42343  0.80629
E77   E   0.57657  0.57657  0.19371
E78   E   0.57657  0.57657  0.80629
E79   E   0.57657  0.80629  0.42343
E80   E   0.57657  0.80629  0.57657
E81   E   0.59686  0.00000  0.20157
E82   E   0.59686  0.00000  0.79843
E83   E   0.59686  0.20157  0.00000
E84   E   0.59686  0.79843  0.00000
E85   E   0.69371  0.07657  0.07657
E86   E   0.69371  0.07657  0.92343
E87   E   0.69371  0.92343  0.07657
E88   E   0.69371  0.92343  0.92343
E89   E   0.70157  0.09686  0.50000
E90   E   0.70157  0.50000  0.09686
E91   E   0.70157  0.50000  0.90314
E92   E   0.70157  0.90314  0.50000
E93   E   0.72972  0.27028  0.50000
E94   E   0.72972  0.50000  0.27028
E95   E   0.72972  0.50000  0.72972
E96   E   0.72972  0.72972  0.50000
E97   E   0.77028  0.00000  0.22972
E98   E   0.77028  0.00000  0.77028
E99   E   0.77028  0.22972  0.00000
E100  E   0.77028  0.77028  0.00000
E101  E   0.79843  0.00000  0.40314
E102  E   0.79843  0.00000  0.59686
E103  E   0.79843  0.40314  0.00000
E104  E   0.79843  0.59686  0.00000
E105  E   0.80629  0.42343  0.42343
E106  E   0.80629  0.42343  0.57657
E107  E   0.80629  0.57657  0.42343
E108  E   0.80629  0.57657  0.57657
E109  E   0.90314  0.29843  0.50000
E110  E   0.90314  0.50000  0.29843
E111  E   0.90314  0.50000  0.70157
E112  E   0.90314  0.70157  0.50000
E113  E   0.92343  0.07657  0.30629
E114  E   0.92343  0.07657  0.69371
E115  E   0.92343  0.30629  0.07657
E116  E   0.92343  0.30629  0.92343
E117  E   0.92343  0.69371  0.07657
E118  E   0.92343  0.69371  0.92343
E119  E   0.92343  0.92343  0.30629
E120  E   0.92343  0.92343  0.69371
loop_
