data_shp-a_P6/mmm  hall_number: 485, V_con: 4, EC_con: 3
_audit_creation_date              2025-03-05
_audit_creation_method            'MOFbuilder_1.0'
_symmetry_space_group_name_H-M    'P1'
_symmetry_Int_Tables_number       1
_symmetry_cell_setting            triclinic
loop_
_symmetry_equiv_pos_as_xyz
  x,y,z
_cell_length_a                    46.1285
_cell_length_b                    46.1285
_cell_length_c                    31.8267
_cell_angle_alpha                 90.0
_cell_angle_beta                  90.0
_cell_angle_gamma                 120.0
loop_
_atom_site_label
_atom_site_type_symbol
_atom_site_fract_x
_atom_site_fract_y
_atom_site_fract_z
V1    V   0.00000  0.21678  0.34290
V2    V   0.00000  0.21678  0.65710
V3    V   0.00000  0.78322  0.34290
V4    V   0.00000  0.78322  0.65710
V5    V   0.21678  0.00000  0.34290
V6    V   0.21678  0.00000  0.65710
V7    V   0.21678  0.21678  0.34290
V8    V   0.21678  0.21678  0.65710
V9    V   0.78322  0.00000  0.34290
V10   V   0.78322  0.00000  0.65710
V11   V   0.78322  0.78322  0.34290
V12   V   0.78322  0.78322  0.65710
EC1    EC   0.00000  0.39161  0.15710
EC2    EC   0.00000  0.39161  0.84290
EC3    EC   0.00000  0.60839  0.15710
EC4    EC   0.00000  0.60839  0.84290
EC5    EC   0.39161  0.00000  0.15710
EC6    EC   0.39161  0.00000  0.84290
EC7    EC   0.39161  0.39161  0.15710
EC8    EC   0.39161  0.39161  0.84290
EC9    EC   0.60839  0.00000  0.15710
EC10   EC   0.60839  0.00000  0.84290
EC11   EC   0.60839  0.60839  0.15710
EC12   EC   0.60839  0.60839  0.84290
E1    E   0.00000  0.21678  0.50000
E2    E   0.00000  0.30420  0.25000
E3    E   0.00000  0.30420  0.75000
E4    E   0.00000  0.39161  0.00000
E5    E   0.00000  0.50000  0.15710
E6    E   0.00000  0.50000  0.84290
E7    E   0.00000  0.60839  0.00000
E8    E   0.00000  0.69580  0.25000
E9    E   0.00000  0.69580  0.75000
E10   E   0.00000  0.78322  0.50000
E11   E   0.10839  0.21678  0.34290
E12   E   0.10839  0.21678  0.65710
E13   E   0.10839  0.89161  0.34290
E14   E   0.10839  0.89161  0.65710
E15   E   0.21678  0.00000  0.50000
E16   E   0.21678  0.10839  0.34290
E17   E   0.21678  0.10839  0.65710
E18   E   0.21678  0.21678  0.50000
E19   E   0.30420  0.00000  0.25000
E20   E   0.30420  0.00000  0.75000
E21   E   0.30420  0.30420  0.25000
E22   E   0.30420  0.30420  0.75000
E23   E   0.39161  0.00000  0.00000
E24   E   0.39161  0.39161  0.00000
E25   E   0.50000  0.00000  0.15710
E26   E   0.50000  0.00000  0.84290
E27   E   0.50000  0.50000  0.15710
E28   E   0.50000  0.50000  0.84290
E29   E   0.60839  0.00000  0.00000
E30   E   0.60839  0.60839  0.00000
E31   E   0.69580  0.00000  0.25000
E32   E   0.69580  0.00000  0.75000
E33   E   0.69580  0.69580  0.25000
E34   E   0.69580  0.69580  0.75000
E35   E   0.78322  0.00000  0.50000
E36   E   0.78322  0.78322  0.50000
E37   E   0.78322  0.89161  0.34290
E38   E   0.78322  0.89161  0.65710
E39   E   0.89161  0.10839  0.34290
E40   E   0.89161  0.10839  0.65710
E41   E   0.89161  0.78322  0.34290
E42   E   0.89161  0.78322  0.65710
loop_
