data_six_Fd-3m:2  hall_number: 526, V_con: 3, EC_con: 3
_audit_creation_date              2025-03-05
_audit_creation_method            'MOFbuilder_1.0'
_symmetry_space_group_name_H-M    'P1'
_symmetry_Int_Tables_number       1
_symmetry_cell_setting            triclinic
loop_
_symmetry_equiv_pos_as_xyz
  x,y,z
_cell_length_a                    10.99602
_cell_length_b                    10.99602
_cell_length_c                    10.99602
_cell_angle_alpha                 90.0
_cell_angle_beta                  90.0
_cell_angle_gamma                 90.0
loop_
_atom_site_label
_atom_site_type_symbol
_atom_site_fract_x
_atom_site_fract_y
_atom_site_fract_z
V1    V   0.01640  0.10788  0.45210
V2    V   0.01640  0.14212  0.79790
V3    V   0.01640  0.29790  0.64212
V4    V   0.01640  0.45210  0.10788
V5    V   0.01640  0.60788  0.95210
V6    V   0.01640  0.64212  0.29790
V7    V   0.01640  0.79790  0.14212
V8    V   0.01640  0.95210  0.60788
V9    V   0.04790  0.26640  0.85788
V10   V   0.04790  0.35788  0.76640
V11   V   0.04790  0.39212  0.98360
V12   V   0.04790  0.48360  0.89212
V13   V   0.04790  0.76640  0.35788
V14   V   0.04790  0.85788  0.26640
V15   V   0.04790  0.89212  0.48360
V16   V   0.04790  0.98360  0.39212
V17   V   0.10788  0.01640  0.45210
V18   V   0.10788  0.23360  0.79790
V19   V   0.10788  0.29790  0.73360
V20   V   0.10788  0.45210  0.01640
V21   V   0.10788  0.51640  0.95210
V22   V   0.10788  0.73360  0.29790
V23   V   0.10788  0.79790  0.23360
V24   V   0.10788  0.95210  0.51640
V25   V   0.14212  0.01640  0.79790
V26   V   0.14212  0.23360  0.45210
V27   V   0.14212  0.29790  0.51640
V28   V   0.14212  0.45210  0.23360
V29   V   0.14212  0.51640  0.29790
V30   V   0.14212  0.73360  0.95210
V31   V   0.14212  0.79790  0.01640
V32   V   0.14212  0.95210  0.73360
V33   V   0.20210  0.26640  0.39212
V34   V   0.20210  0.35788  0.48360
V35   V   0.20210  0.39212  0.26640
V36   V   0.20210  0.48360  0.35788
V37   V   0.20210  0.76640  0.89212
V38   V   0.20210  0.85788  0.98360
V39   V   0.20210  0.89212  0.76640
V40   V   0.20210  0.98360  0.85788
V41   V   0.23360  0.10788  0.79790
V42   V   0.23360  0.14212  0.45210
V43   V   0.23360  0.29790  0.60788
V44   V   0.23360  0.45210  0.14212
V45   V   0.23360  0.60788  0.29790
V46   V   0.23360  0.64212  0.95210
V47   V   0.23360  0.79790  0.10788
V48   V   0.23360  0.95210  0.64212
V49   V   0.26640  0.04790  0.85788
V50   V   0.26640  0.20210  0.39212
V51   V   0.26640  0.35788  0.54790
V52   V   0.26640  0.39212  0.20210
V53   V   0.26640  0.54790  0.35788
V54   V   0.26640  0.70210  0.89212
V55   V   0.26640  0.85788  0.04790
V56   V   0.26640  0.89212  0.70210
V57   V   0.29790  0.01640  0.64212
V58   V   0.29790  0.10788  0.73360
V59   V   0.29790  0.14212  0.51640
V60   V   0.29790  0.23360  0.60788
V61   V   0.29790  0.51640  0.14212
V62   V   0.29790  0.60788  0.23360
V63   V   0.29790  0.64212  0.01640
V64   V   0.29790  0.73360  0.10788
V65   V   0.35788  0.04790  0.76640
V66   V   0.35788  0.20210  0.48360
V67   V   0.35788  0.26640  0.54790
V68   V   0.35788  0.48360  0.20210
V69   V   0.35788  0.54790  0.26640
V70   V   0.35788  0.70210  0.98360
V71   V   0.35788  0.76640  0.04790
V72   V   0.35788  0.98360  0.70210
V73   V   0.39212  0.04790  0.98360
V74   V   0.39212  0.20210  0.26640
V75   V   0.39212  0.26640  0.20210
V76   V   0.39212  0.48360  0.54790
V77   V   0.39212  0.54790  0.48360
V78   V   0.39212  0.70210  0.76640
V79   V   0.39212  0.76640  0.70210
V80   V   0.39212  0.98360  0.04790
V81   V   0.45210  0.01640  0.10788
V82   V   0.45210  0.10788  0.01640
V83   V   0.45210  0.14212  0.23360
V84   V   0.45210  0.23360  0.14212
V85   V   0.45210  0.51640  0.60788
V86   V   0.45210  0.60788  0.51640
V87   V   0.45210  0.64212  0.73360
V88   V   0.45210  0.73360  0.64212
V89   V   0.48360  0.04790  0.89212
V90   V   0.48360  0.20210  0.35788
V91   V   0.48360  0.35788  0.20210
V92   V   0.48360  0.39212  0.54790
V93   V   0.48360  0.54790  0.39212
V94   V   0.48360  0.70210  0.85788
V95   V   0.48360  0.85788  0.70210
V96   V   0.48360  0.89212  0.04790
V97   V   0.51640  0.10788  0.95210
V98   V   0.51640  0.14212  0.29790
V99   V   0.51640  0.29790  0.14212
V100  V   0.51640  0.45210  0.60788
V101  V   0.51640  0.60788  0.45210
V102  V   0.51640  0.64212  0.79790
V103  V   0.51640  0.79790  0.64212
V104  V   0.51640  0.95210  0.10788
V105  V   0.54790  0.26640  0.35788
V106  V   0.54790  0.35788  0.26640
V107  V   0.54790  0.39212  0.48360
V108  V   0.54790  0.48360  0.39212
V109  V   0.54790  0.76640  0.85788
V110  V   0.54790  0.85788  0.76640
V111  V   0.54790  0.89212  0.98360
V112  V   0.54790  0.98360  0.89212
V113  V   0.60788  0.01640  0.95210
V114  V   0.60788  0.23360  0.29790
V115  V   0.60788  0.29790  0.23360
V116  V   0.60788  0.45210  0.51640
V117  V   0.60788  0.51640  0.45210
V118  V   0.60788  0.73360  0.79790
V119  V   0.60788  0.79790  0.73360
V120  V   0.60788  0.95210  0.01640
V121  V   0.64212  0.01640  0.29790
V122  V   0.64212  0.23360  0.95210
V123  V   0.64212  0.29790  0.01640
V124  V   0.64212  0.45210  0.73360
V125  V   0.64212  0.51640  0.79790
V126  V   0.64212  0.73360  0.45210
V127  V   0.64212  0.79790  0.51640
V128  V   0.64212  0.95210  0.23360
V129  V   0.70210  0.26640  0.89212
V130  V   0.70210  0.35788  0.98360
V131  V   0.70210  0.39212  0.76640
V132  V   0.70210  0.48360  0.85788
V133  V   0.70210  0.76640  0.39212
V134  V   0.70210  0.85788  0.48360
V135  V   0.70210  0.89212  0.26640
V136  V   0.70210  0.98360  0.35788
V137  V   0.73360  0.10788  0.29790
V138  V   0.73360  0.14212  0.95210
V139  V   0.73360  0.29790  0.10788
V140  V   0.73360  0.45210  0.64212
V141  V   0.73360  0.60788  0.79790
V142  V   0.73360  0.64212  0.45210
V143  V   0.73360  0.79790  0.60788
V144  V   0.73360  0.95210  0.14212
V145  V   0.76640  0.04790  0.35788
V146  V   0.76640  0.20210  0.89212
V147  V   0.76640  0.35788  0.04790
V148  V   0.76640  0.39212  0.70210
V149  V   0.76640  0.54790  0.85788
V150  V   0.76640  0.70210  0.39212
V151  V   0.76640  0.85788  0.54790
V152  V   0.76640  0.89212  0.20210
V153  V   0.79790  0.01640  0.14212
V154  V   0.79790  0.10788  0.23360
V155  V   0.79790  0.14212  0.01640
V156  V   0.79790  0.23360  0.10788
V157  V   0.79790  0.51640  0.64212
V158  V   0.79790  0.60788  0.73360
V159  V   0.79790  0.64212  0.51640
V160  V   0.79790  0.73360  0.60788
V161  V   0.85788  0.04790  0.26640
V162  V   0.85788  0.20210  0.98360
V163  V   0.85788  0.26640  0.04790
V164  V   0.85788  0.48360  0.70210
V165  V   0.85788  0.54790  0.76640
V166  V   0.85788  0.70210  0.48360
V167  V   0.85788  0.76640  0.54790
V168  V   0.85788  0.98360  0.20210
V169  V   0.89212  0.04790  0.48360
V170  V   0.89212  0.20210  0.76640
V171  V   0.89212  0.26640  0.70210
V172  V   0.89212  0.48360  0.04790
V173  V   0.89212  0.54790  0.98360
V174  V   0.89212  0.70210  0.26640
V175  V   0.89212  0.76640  0.20210
V176  V   0.89212  0.98360  0.54790
V177  V   0.95210  0.01640  0.60788
V178  V   0.95210  0.10788  0.51640
V179  V   0.95210  0.14212  0.73360
V180  V   0.95210  0.23360  0.64212
V181  V   0.95210  0.51640  0.10788
V182  V   0.95210  0.60788  0.01640
V183  V   0.95210  0.64212  0.23360
V184  V   0.95210  0.73360  0.14212
V185  V   0.98360  0.04790  0.39212
V186  V   0.98360  0.20210  0.85788
V187  V   0.98360  0.35788  0.70210
V188  V   0.98360  0.39212  0.04790
V189  V   0.98360  0.54790  0.89212
V190  V   0.98360  0.70210  0.35788
V191  V   0.98360  0.85788  0.20210
V192  V   0.98360  0.89212  0.54790
EC1    EC   0.04784  0.34286  0.90714
EC2    EC   0.04784  0.40714  0.84286
EC3    EC   0.04784  0.84286  0.40714
EC4    EC   0.04784  0.90714  0.34286
EC5    EC   0.09286  0.09286  0.79784
EC6    EC   0.09286  0.15714  0.45216
EC7    EC   0.09286  0.29784  0.59286
EC8    EC   0.09286  0.45216  0.15714
EC9    EC   0.09286  0.59286  0.29784
EC10   EC   0.09286  0.65714  0.95216
EC11   EC   0.09286  0.79784  0.09286
EC12   EC   0.09286  0.95216  0.65714
EC13   EC   0.15714  0.09286  0.45216
EC14   EC   0.15714  0.15714  0.79784
EC15   EC   0.15714  0.29784  0.65714
EC16   EC   0.15714  0.45216  0.09286
EC17   EC   0.15714  0.59286  0.95216
EC18   EC   0.15714  0.65714  0.29784
EC19   EC   0.15714  0.79784  0.15714
EC20   EC   0.15714  0.95216  0.59286
EC21   EC   0.20216  0.34286  0.34286
EC22   EC   0.20216  0.40714  0.40714
EC23   EC   0.20216  0.84286  0.84286
EC24   EC   0.20216  0.90714  0.90714
EC25   EC   0.29784  0.09286  0.59286
EC26   EC   0.29784  0.15714  0.65714
EC27   EC   0.29784  0.59286  0.09286
EC28   EC   0.29784  0.65714  0.15714
EC29   EC   0.34286  0.04784  0.90714
EC30   EC   0.34286  0.20216  0.34286
EC31   EC   0.34286  0.34286  0.20216
EC32   EC   0.34286  0.40714  0.54784
EC33   EC   0.34286  0.54784  0.40714
EC34   EC   0.34286  0.70216  0.84286
EC35   EC   0.34286  0.84286  0.70216
EC36   EC   0.34286  0.90714  0.04784
EC37   EC   0.40714  0.04784  0.84286
EC38   EC   0.40714  0.20216  0.40714
EC39   EC   0.40714  0.34286  0.54784
EC40   EC   0.40714  0.40714  0.20216
EC41   EC   0.40714  0.54784  0.34286
EC42   EC   0.40714  0.70216  0.90714
EC43   EC   0.40714  0.84286  0.04784
EC44   EC   0.40714  0.90714  0.70216
EC45   EC   0.45216  0.09286  0.15714
EC46   EC   0.45216  0.15714  0.09286
EC47   EC   0.45216  0.59286  0.65714
EC48   EC   0.45216  0.65714  0.59286
EC49   EC   0.54784  0.34286  0.40714
EC50   EC   0.54784  0.40714  0.34286
EC51   EC   0.54784  0.84286  0.90714
EC52   EC   0.54784  0.90714  0.84286
EC53   EC   0.59286  0.09286  0.29784
EC54   EC   0.59286  0.15714  0.95216
EC55   EC   0.59286  0.29784  0.09286
EC56   EC   0.59286  0.45216  0.65714
EC57   EC   0.59286  0.59286  0.79784
EC58   EC   0.59286  0.65714  0.45216
EC59   EC   0.59286  0.79784  0.59286
EC60   EC   0.59286  0.95216  0.15714
EC61   EC   0.65714  0.09286  0.95216
EC62   EC   0.65714  0.15714  0.29784
EC63   EC   0.65714  0.29784  0.15714
EC64   EC   0.65714  0.45216  0.59286
EC65   EC   0.65714  0.59286  0.45216
EC66   EC   0.65714  0.65714  0.79784
EC67   EC   0.65714  0.79784  0.65714
EC68   EC   0.65714  0.95216  0.09286
EC69   EC   0.70216  0.34286  0.84286
EC70   EC   0.70216  0.40714  0.90714
EC71   EC   0.70216  0.84286  0.34286
EC72   EC   0.70216  0.90714  0.40714
EC73   EC   0.79784  0.09286  0.09286
EC74   EC   0.79784  0.15714  0.15714
EC75   EC   0.79784  0.59286  0.59286
EC76   EC   0.79784  0.65714  0.65714
EC77   EC   0.84286  0.04784  0.40714
EC78   EC   0.84286  0.20216  0.84286
EC79   EC   0.84286  0.34286  0.70216
EC80   EC   0.84286  0.40714  0.04784
EC81   EC   0.84286  0.54784  0.90714
EC82   EC   0.84286  0.70216  0.34286
EC83   EC   0.84286  0.84286  0.20216
EC84   EC   0.84286  0.90714  0.54784
EC85   EC   0.90714  0.04784  0.34286
EC86   EC   0.90714  0.20216  0.90714
EC87   EC   0.90714  0.34286  0.04784
EC88   EC   0.90714  0.40714  0.70216
EC89   EC   0.90714  0.54784  0.84286
EC90   EC   0.90714  0.70216  0.40714
EC91   EC   0.90714  0.84286  0.54784
EC92   EC   0.90714  0.90714  0.20216
EC93   EC   0.95216  0.09286  0.65714
EC94   EC   0.95216  0.15714  0.59286
EC95   EC   0.95216  0.59286  0.15714
EC96   EC   0.95216  0.65714  0.09286
E1    E   0.00000  0.07789  0.42211
E2    E   0.00000  0.07789  0.42211
E3    E   0.00000  0.17211  0.82789
E4    E   0.00000  0.32789  0.67211
E5    E   0.00000  0.42211  0.07789
E6    E   0.00000  0.42211  0.07789
E7    E   0.00000  0.57789  0.92211
E8    E   0.00000  0.67211  0.32789
E9    E   0.00000  0.82789  0.17211
E10   E   0.00000  0.92211  0.57789
E11   E   0.01575  0.01575  0.39212
E12   E   0.01575  0.23425  0.85788
E13   E   0.01575  0.35788  0.73425
E14   E   0.01575  0.39212  0.01575
E15   E   0.01575  0.51575  0.89212
E16   E   0.01575  0.73425  0.35788
E17   E   0.01575  0.85788  0.23425
E18   E   0.01575  0.89212  0.51575
E19   E   0.01575  0.01575  0.39212
E20   E   0.01575  0.23425  0.85788
E21   E   0.01575  0.35788  0.73425
E22   E   0.01575  0.39212  0.01575
E23   E   0.01575  0.51575  0.89212
E24   E   0.01575  0.73425  0.35788
E25   E   0.01575  0.85788  0.23425
E26   E   0.01575  0.89212  0.51575
E27   E   0.04784  0.37500  0.87500
E28   E   0.04784  0.87500  0.37500
E29   E   0.04787  0.30463  0.88251
E30   E   0.04787  0.36749  0.94537
E31   E   0.04787  0.38251  0.80463
E32   E   0.04787  0.44537  0.86749
E33   E   0.04787  0.80463  0.38251
E34   E   0.04787  0.86749  0.44537
E35   E   0.04787  0.88251  0.30463
E36   E   0.04787  0.94537  0.36749
E37   E   0.05463  0.11749  0.79787
E38   E   0.05463  0.13251  0.45213
E39   E   0.05463  0.29787  0.61749
E40   E   0.05463  0.45213  0.13251
E41   E   0.05463  0.61749  0.29787
E42   E   0.05463  0.63251  0.95213
E43   E   0.05463  0.79787  0.11749
E44   E   0.05463  0.95213  0.63251
E45   E   0.07789  0.00000  0.42211
E46   E   0.07789  0.25000  0.82789
E47   E   0.07789  0.32789  0.75000
E48   E   0.07789  0.42211  0.00000
E49   E   0.07789  0.50000  0.92211
E50   E   0.07789  0.75000  0.32789
E51   E   0.07789  0.82789  0.25000
E52   E   0.07789  0.92211  0.50000
E53   E   0.07789  0.00000  0.42211
E54   E   0.07789  0.25000  0.82789
E55   E   0.07789  0.32789  0.75000
E56   E   0.07789  0.42211  0.00000
E57   E   0.07789  0.50000  0.92211
E58   E   0.07789  0.75000  0.32789
E59   E   0.07789  0.82789  0.25000
E60   E   0.07789  0.92211  0.50000
E61   E   0.10788  0.26575  0.76575
E62   E   0.10788  0.26575  0.76575
E63   E   0.10788  0.48425  0.98425
E64   E   0.10788  0.48425  0.98425
E65   E   0.10788  0.76575  0.26575
E66   E   0.10788  0.76575  0.26575
E67   E   0.10788  0.98425  0.48425
E68   E   0.10788  0.98425  0.48425
E69   E   0.11749  0.05463  0.79787
E70   E   0.11749  0.19537  0.45213
E71   E   0.11749  0.29787  0.55463
E72   E   0.11749  0.45213  0.19537
E73   E   0.11749  0.55463  0.29787
E74   E   0.11749  0.69537  0.95213
E75   E   0.11749  0.79787  0.05463
E76   E   0.11749  0.95213  0.69537
E77   E   0.12500  0.12500  0.45216
E78   E   0.12500  0.12500  0.79784
E79   E   0.12500  0.29784  0.62500
E80   E   0.12500  0.45216  0.12500
E81   E   0.12500  0.62500  0.29784
E82   E   0.12500  0.62500  0.95216
E83   E   0.12500  0.79784  0.12500
E84   E   0.12500  0.95216  0.62500
E85   E   0.13251  0.05463  0.45213
E86   E   0.13251  0.19537  0.79787
E87   E   0.13251  0.29787  0.69537
E88   E   0.13251  0.45213  0.05463
E89   E   0.13251  0.55463  0.95213
E90   E   0.13251  0.69537  0.29787
E91   E   0.13251  0.79787  0.19537
E92   E   0.13251  0.95213  0.55463
E93   E   0.14212  0.26575  0.48425
E94   E   0.14212  0.48425  0.26575
E95   E   0.14212  0.76575  0.98425
E96   E   0.14212  0.76575  0.98425
E97   E   0.14212  0.98425  0.76575
E98   E   0.14212  0.98425  0.76575
E99   E   0.17211  0.00000  0.82789
E100  E   0.17211  0.25000  0.42211
E101  E   0.17211  0.32789  0.50000
E102  E   0.17211  0.42211  0.25000
E103  E   0.17211  0.50000  0.32789
E104  E   0.17211  0.75000  0.92211
E105  E   0.17211  0.82789  0.00000
E106  E   0.17211  0.92211  0.75000
E107  E   0.19537  0.11749  0.45213
E108  E   0.19537  0.13251  0.79787
E109  E   0.19537  0.29787  0.63251
E110  E   0.19537  0.45213  0.11749
E111  E   0.19537  0.61749  0.95213
E112  E   0.19537  0.63251  0.29787
E113  E   0.19537  0.79787  0.13251
E114  E   0.19537  0.95213  0.61749
E115  E   0.20213  0.30463  0.36749
E116  E   0.20213  0.36749  0.30463
E117  E   0.20213  0.38251  0.44537
E118  E   0.20213  0.44537  0.38251
E119  E   0.20213  0.80463  0.86749
E120  E   0.20213  0.86749  0.80463
E121  E   0.20213  0.88251  0.94537
E122  E   0.20213  0.94537  0.88251
E123  E   0.20216  0.37500  0.37500
E124  E   0.20216  0.87500  0.87500
E125  E   0.23425  0.01575  0.85788
E126  E   0.23425  0.23425  0.39212
E127  E   0.23425  0.35788  0.51575
E128  E   0.23425  0.39212  0.23425
E129  E   0.23425  0.51575  0.35788
E130  E   0.23425  0.73425  0.89212
E131  E   0.23425  0.85788  0.01575
E132  E   0.23425  0.89212  0.73425
E133  E   0.23425  0.01575  0.85788
E134  E   0.23425  0.23425  0.39212
E135  E   0.23425  0.35788  0.51575
E136  E   0.23425  0.39212  0.23425
E137  E   0.23425  0.51575  0.35788
E138  E   0.23425  0.73425  0.89212
E139  E   0.23425  0.85788  0.01575
E140  E   0.23425  0.89212  0.73425
E141  E   0.25000  0.07789  0.82789
E142  E   0.25000  0.07789  0.82789
E143  E   0.25000  0.17211  0.42211
E144  E   0.25000  0.32789  0.57789
E145  E   0.25000  0.42211  0.17211
E146  E   0.25000  0.57789  0.32789
E147  E   0.25000  0.67211  0.92211
E148  E   0.25000  0.82789  0.07789
E149  E   0.25000  0.82789  0.07789
E150  E   0.25000  0.92211  0.67211
E151  E   0.26575  0.10788  0.76575
E152  E   0.26575  0.10788  0.76575
E153  E   0.26575  0.14212  0.48425
E154  E   0.26575  0.26575  0.60788
E155  E   0.26575  0.48425  0.14212
E156  E   0.26575  0.60788  0.26575
E157  E   0.26575  0.64212  0.98425
E158  E   0.26575  0.64212  0.98425
E159  E   0.26575  0.76575  0.10788
E160  E   0.26575  0.76575  0.10788
E161  E   0.26575  0.98425  0.64212
E162  E   0.26575  0.98425  0.64212
E163  E   0.29784  0.12500  0.62500
E164  E   0.29784  0.62500  0.12500
E165  E   0.29787  0.05463  0.61749
E166  E   0.29787  0.11749  0.55463
E167  E   0.29787  0.13251  0.69537
E168  E   0.29787  0.19537  0.63251
E169  E   0.29787  0.55463  0.11749
E170  E   0.29787  0.61749  0.05463
E171  E   0.29787  0.63251  0.19537
E172  E   0.29787  0.69537  0.13251
E173  E   0.30463  0.04787  0.88251
E174  E   0.30463  0.20213  0.36749
E175  E   0.30463  0.36749  0.20213
E176  E   0.30463  0.38251  0.54787
E177  E   0.30463  0.54787  0.38251
E178  E   0.30463  0.70213  0.86749
E179  E   0.30463  0.86749  0.70213
E180  E   0.30463  0.88251  0.04787
E181  E   0.32789  0.00000  0.67211
E182  E   0.32789  0.07789  0.75000
E183  E   0.32789  0.07789  0.75000
E184  E   0.32789  0.17211  0.50000
E185  E   0.32789  0.25000  0.57789
E186  E   0.32789  0.50000  0.17211
E187  E   0.32789  0.57789  0.25000
E188  E   0.32789  0.67211  0.00000
E189  E   0.32789  0.75000  0.07789
E190  E   0.32789  0.75000  0.07789
E191  E   0.35788  0.01575  0.73425
E192  E   0.35788  0.01575  0.73425
E193  E   0.35788  0.23425  0.51575
E194  E   0.35788  0.23425  0.51575
E195  E   0.35788  0.51575  0.23425
E196  E   0.35788  0.51575  0.23425
E197  E   0.35788  0.73425  0.01575
E198  E   0.35788  0.73425  0.01575
E199  E   0.36749  0.04787  0.94537
E200  E   0.36749  0.20213  0.30463
E201  E   0.36749  0.30463  0.20213
E202  E   0.36749  0.44537  0.54787
E203  E   0.36749  0.54787  0.44537
E204  E   0.36749  0.70213  0.80463
E205  E   0.36749  0.80463  0.70213
E206  E   0.36749  0.94537  0.04787
E207  E   0.37500  0.04784  0.87500
E208  E   0.37500  0.20216  0.37500
E209  E   0.37500  0.37500  0.20216
E210  E   0.37500  0.37500  0.54784
E211  E   0.37500  0.54784  0.37500
E212  E   0.37500  0.70216  0.87500
E213  E   0.37500  0.87500  0.04784
E214  E   0.37500  0.87500  0.70216
E215  E   0.38251  0.04787  0.80463
E216  E   0.38251  0.20213  0.44537
E217  E   0.38251  0.30463  0.54787
E218  E   0.38251  0.44537  0.20213
E219  E   0.38251  0.54787  0.30463
E220  E   0.38251  0.70213  0.94537
E221  E   0.38251  0.80463  0.04787
E222  E   0.38251  0.94537  0.70213
E223  E   0.39212  0.01575  0.01575
E224  E   0.39212  0.01575  0.01575
E225  E   0.39212  0.23425  0.23425
E226  E   0.39212  0.23425  0.23425
E227  E   0.39212  0.51575  0.51575
E228  E   0.39212  0.51575  0.51575
E229  E   0.39212  0.73425  0.73425
E230  E   0.39212  0.73425  0.73425
E231  E   0.42211  0.00000  0.07789
E232  E   0.42211  0.00000  0.07789
E233  E   0.42211  0.07789  0.00000
E234  E   0.42211  0.07789  0.00000
E235  E   0.42211  0.17211  0.25000
E236  E   0.42211  0.25000  0.17211
E237  E   0.42211  0.50000  0.57789
E238  E   0.42211  0.57789  0.50000
E239  E   0.42211  0.67211  0.75000
E240  E   0.42211  0.75000  0.67211
E241  E   0.44537  0.04787  0.86749
E242  E   0.44537  0.20213  0.38251
E243  E   0.44537  0.36749  0.54787
E244  E   0.44537  0.38251  0.20213
E245  E   0.44537  0.54787  0.36749
E246  E   0.44537  0.70213  0.88251
E247  E   0.44537  0.86749  0.04787
E248  E   0.44537  0.88251  0.70213
E249  E   0.45213  0.05463  0.13251
E250  E   0.45213  0.11749  0.19537
E251  E   0.45213  0.13251  0.05463
E252  E   0.45213  0.19537  0.11749
E253  E   0.45213  0.55463  0.63251
E254  E   0.45213  0.61749  0.69537
E255  E   0.45213  0.63251  0.55463
E256  E   0.45213  0.69537  0.61749
E257  E   0.45216  0.12500  0.12500
E258  E   0.45216  0.62500  0.62500
E259  E   0.48425  0.10788  0.98425
E260  E   0.48425  0.10788  0.98425
E261  E   0.48425  0.14212  0.26575
E262  E   0.48425  0.26575  0.14212
E263  E   0.48425  0.48425  0.60788
E264  E   0.48425  0.60788  0.48425
E265  E   0.48425  0.64212  0.76575
E266  E   0.48425  0.64212  0.76575
E267  E   0.48425  0.76575  0.64212
E268  E   0.48425  0.76575  0.64212
E269  E   0.48425  0.98425  0.10788
E270  E   0.48425  0.98425  0.10788
E271  E   0.50000  0.07789  0.92211
E272  E   0.50000  0.07789  0.92211
E273  E   0.50000  0.17211  0.32789
E274  E   0.50000  0.32789  0.17211
E275  E   0.50000  0.42211  0.57789
E276  E   0.50000  0.57789  0.42211
E277  E   0.50000  0.67211  0.82789
E278  E   0.50000  0.82789  0.67211
E279  E   0.50000  0.92211  0.07789
E280  E   0.50000  0.92211  0.07789
E281  E   0.51575  0.01575  0.89212
E282  E   0.51575  0.23425  0.35788
E283  E   0.51575  0.35788  0.23425
E284  E   0.51575  0.39212  0.51575
E285  E   0.51575  0.51575  0.39212
E286  E   0.51575  0.73425  0.85788
E287  E   0.51575  0.85788  0.73425
E288  E   0.51575  0.89212  0.01575
E289  E   0.51575  0.01575  0.89212
E290  E   0.51575  0.23425  0.35788
E291  E   0.51575  0.35788  0.23425
E292  E   0.51575  0.39212  0.51575
E293  E   0.51575  0.51575  0.39212
E294  E   0.51575  0.73425  0.85788
E295  E   0.51575  0.85788  0.73425
E296  E   0.51575  0.89212  0.01575
E297  E   0.54784  0.37500  0.37500
E298  E   0.54784  0.87500  0.87500
E299  E   0.54787  0.30463  0.38251
E300  E   0.54787  0.36749  0.44537
E301  E   0.54787  0.38251  0.30463
E302  E   0.54787  0.44537  0.36749
E303  E   0.54787  0.80463  0.88251
E304  E   0.54787  0.86749  0.94537
E305  E   0.54787  0.88251  0.80463
E306  E   0.54787  0.94537  0.86749
E307  E   0.55463  0.11749  0.29787
E308  E   0.55463  0.13251  0.95213
E309  E   0.55463  0.29787  0.11749
E310  E   0.55463  0.45213  0.63251
E311  E   0.55463  0.61749  0.79787
E312  E   0.55463  0.63251  0.45213
E313  E   0.55463  0.79787  0.61749
E314  E   0.55463  0.95213  0.13251
E315  E   0.57789  0.00000  0.92211
E316  E   0.57789  0.25000  0.32789
E317  E   0.57789  0.32789  0.25000
E318  E   0.57789  0.42211  0.50000
E319  E   0.57789  0.50000  0.42211
E320  E   0.57789  0.75000  0.82789
E321  E   0.57789  0.82789  0.75000
E322  E   0.57789  0.92211  0.00000
E323  E   0.60788  0.26575  0.26575
E324  E   0.60788  0.48425  0.48425
E325  E   0.60788  0.76575  0.76575
E326  E   0.60788  0.76575  0.76575
E327  E   0.60788  0.98425  0.98425
E328  E   0.60788  0.98425  0.98425
E329  E   0.61749  0.05463  0.29787
E330  E   0.61749  0.19537  0.95213
E331  E   0.61749  0.29787  0.05463
E332  E   0.61749  0.45213  0.69537
E333  E   0.61749  0.55463  0.79787
E334  E   0.61749  0.69537  0.45213
E335  E   0.61749  0.79787  0.55463
E336  E   0.61749  0.95213  0.19537
E337  E   0.62500  0.12500  0.29784
E338  E   0.62500  0.12500  0.95216
E339  E   0.62500  0.29784  0.12500
E340  E   0.62500  0.45216  0.62500
E341  E   0.62500  0.62500  0.45216
E342  E   0.62500  0.62500  0.79784
E343  E   0.62500  0.79784  0.62500
E344  E   0.62500  0.95216  0.12500
E345  E   0.63251  0.05463  0.95213
E346  E   0.63251  0.19537  0.29787
E347  E   0.63251  0.29787  0.19537
E348  E   0.63251  0.45213  0.55463
E349  E   0.63251  0.55463  0.45213
E350  E   0.63251  0.69537  0.79787
E351  E   0.63251  0.79787  0.69537
E352  E   0.63251  0.95213  0.05463
E353  E   0.64212  0.26575  0.98425
E354  E   0.64212  0.26575  0.98425
E355  E   0.64212  0.48425  0.76575
E356  E   0.64212  0.48425  0.76575
E357  E   0.64212  0.76575  0.48425
E358  E   0.64212  0.76575  0.48425
E359  E   0.64212  0.98425  0.26575
E360  E   0.64212  0.98425  0.26575
E361  E   0.67211  0.00000  0.32789
E362  E   0.67211  0.25000  0.92211
E363  E   0.67211  0.32789  0.00000
E364  E   0.67211  0.42211  0.75000
E365  E   0.67211  0.50000  0.82789
E366  E   0.67211  0.75000  0.42211
E367  E   0.67211  0.82789  0.50000
E368  E   0.67211  0.92211  0.25000
E369  E   0.69537  0.11749  0.95213
E370  E   0.69537  0.13251  0.29787
E371  E   0.69537  0.29787  0.13251
E372  E   0.69537  0.45213  0.61749
E373  E   0.69537  0.61749  0.45213
E374  E   0.69537  0.63251  0.79787
E375  E   0.69537  0.79787  0.63251
E376  E   0.69537  0.95213  0.11749
E377  E   0.70213  0.30463  0.86749
E378  E   0.70213  0.36749  0.80463
E379  E   0.70213  0.38251  0.94537
E380  E   0.70213  0.44537  0.88251
E381  E   0.70213  0.80463  0.36749
E382  E   0.70213  0.86749  0.30463
E383  E   0.70213  0.88251  0.44537
E384  E   0.70213  0.94537  0.38251
E385  E   0.70216  0.37500  0.87500
E386  E   0.70216  0.87500  0.37500
E387  E   0.73425  0.01575  0.35788
E388  E   0.73425  0.23425  0.89212
E389  E   0.73425  0.35788  0.01575
E390  E   0.73425  0.39212  0.73425
E391  E   0.73425  0.51575  0.85788
E392  E   0.73425  0.73425  0.39212
E393  E   0.73425  0.85788  0.51575
E394  E   0.73425  0.89212  0.23425
E395  E   0.73425  0.01575  0.35788
E396  E   0.73425  0.23425  0.89212
E397  E   0.73425  0.35788  0.01575
E398  E   0.73425  0.39212  0.73425
E399  E   0.73425  0.51575  0.85788
E400  E   0.73425  0.73425  0.39212
E401  E   0.73425  0.85788  0.51575
E402  E   0.73425  0.89212  0.23425
E403  E   0.75000  0.07789  0.32789
E404  E   0.75000  0.07789  0.32789
E405  E   0.75000  0.17211  0.92211
E406  E   0.75000  0.32789  0.07789
E407  E   0.75000  0.32789  0.07789
E408  E   0.75000  0.42211  0.67211
E409  E   0.75000  0.57789  0.82789
E410  E   0.75000  0.67211  0.42211
E411  E   0.75000  0.82789  0.57789
E412  E   0.75000  0.92211  0.17211
E413  E   0.76575  0.10788  0.26575
E414  E   0.76575  0.14212  0.98425
E415  E   0.76575  0.26575  0.10788
E416  E   0.76575  0.48425  0.64212
E417  E   0.76575  0.60788  0.76575
E418  E   0.76575  0.64212  0.48425
E419  E   0.76575  0.76575  0.60788
E420  E   0.76575  0.98425  0.14212
E421  E   0.76575  0.10788  0.26575
E422  E   0.76575  0.14212  0.98425
E423  E   0.76575  0.26575  0.10788
E424  E   0.76575  0.48425  0.64212
E425  E   0.76575  0.60788  0.76575
E426  E   0.76575  0.64212  0.48425
E427  E   0.76575  0.76575  0.60788
E428  E   0.76575  0.98425  0.14212
E429  E   0.79784  0.12500  0.12500
E430  E   0.79784  0.62500  0.62500
E431  E   0.79787  0.05463  0.11749
E432  E   0.79787  0.11749  0.05463
E433  E   0.79787  0.13251  0.19537
E434  E   0.79787  0.19537  0.13251
E435  E   0.79787  0.55463  0.61749
E436  E   0.79787  0.61749  0.55463
E437  E   0.79787  0.63251  0.69537
E438  E   0.79787  0.69537  0.63251
E439  E   0.80463  0.04787  0.38251
E440  E   0.80463  0.20213  0.86749
E441  E   0.80463  0.36749  0.70213
E442  E   0.80463  0.38251  0.04787
E443  E   0.80463  0.54787  0.88251
E444  E   0.80463  0.70213  0.36749
E445  E   0.80463  0.86749  0.20213
E446  E   0.80463  0.88251  0.54787
E447  E   0.82789  0.00000  0.17211
E448  E   0.82789  0.07789  0.25000
E449  E   0.82789  0.07789  0.25000
E450  E   0.82789  0.17211  0.00000
E451  E   0.82789  0.25000  0.07789
E452  E   0.82789  0.25000  0.07789
E453  E   0.82789  0.50000  0.67211
E454  E   0.82789  0.57789  0.75000
E455  E   0.82789  0.67211  0.50000
E456  E   0.82789  0.75000  0.57789
E457  E   0.85788  0.01575  0.23425
E458  E   0.85788  0.01575  0.23425
E459  E   0.85788  0.23425  0.01575
E460  E   0.85788  0.23425  0.01575
E461  E   0.85788  0.51575  0.73425
E462  E   0.85788  0.51575  0.73425
E463  E   0.85788  0.73425  0.51575
E464  E   0.85788  0.73425  0.51575
E465  E   0.86749  0.04787  0.44537
E466  E   0.86749  0.20213  0.80463
E467  E   0.86749  0.30463  0.70213
E468  E   0.86749  0.44537  0.04787
E469  E   0.86749  0.54787  0.94537
E470  E   0.86749  0.70213  0.30463
E471  E   0.86749  0.80463  0.20213
E472  E   0.86749  0.94537  0.54787
E473  E   0.87500  0.04784  0.37500
E474  E   0.87500  0.20216  0.87500
E475  E   0.87500  0.37500  0.04784
E476  E   0.87500  0.37500  0.70216
E477  E   0.87500  0.54784  0.87500
E478  E   0.87500  0.70216  0.37500
E479  E   0.87500  0.87500  0.20216
E480  E   0.87500  0.87500  0.54784
E481  E   0.88251  0.04787  0.30463
E482  E   0.88251  0.20213  0.94537
E483  E   0.88251  0.30463  0.04787
E484  E   0.88251  0.44537  0.70213
E485  E   0.88251  0.54787  0.80463
E486  E   0.88251  0.70213  0.44537
E487  E   0.88251  0.80463  0.54787
E488  E   0.88251  0.94537  0.20213
E489  E   0.89212  0.01575  0.51575
E490  E   0.89212  0.01575  0.51575
E491  E   0.89212  0.23425  0.73425
E492  E   0.89212  0.23425  0.73425
E493  E   0.89212  0.51575  0.01575
E494  E   0.89212  0.51575  0.01575
E495  E   0.89212  0.73425  0.23425
E496  E   0.89212  0.73425  0.23425
E497  E   0.92211  0.00000  0.57789
E498  E   0.92211  0.07789  0.50000
E499  E   0.92211  0.07789  0.50000
E500  E   0.92211  0.17211  0.75000
E501  E   0.92211  0.25000  0.67211
E502  E   0.92211  0.50000  0.07789
E503  E   0.92211  0.50000  0.07789
E504  E   0.92211  0.57789  0.00000
E505  E   0.92211  0.67211  0.25000
E506  E   0.92211  0.75000  0.17211
E507  E   0.94537  0.04787  0.36749
E508  E   0.94537  0.20213  0.88251
E509  E   0.94537  0.36749  0.04787
E510  E   0.94537  0.38251  0.70213
E511  E   0.94537  0.54787  0.86749
E512  E   0.94537  0.70213  0.38251
E513  E   0.94537  0.86749  0.54787
E514  E   0.94537  0.88251  0.20213
E515  E   0.95213  0.05463  0.63251
E516  E   0.95213  0.11749  0.69537
E517  E   0.95213  0.13251  0.55463
E518  E   0.95213  0.19537  0.61749
E519  E   0.95213  0.55463  0.13251
E520  E   0.95213  0.61749  0.19537
E521  E   0.95213  0.63251  0.05463
E522  E   0.95213  0.69537  0.11749
E523  E   0.95216  0.12500  0.62500
E524  E   0.95216  0.62500  0.12500
E525  E   0.98425  0.10788  0.48425
E526  E   0.98425  0.14212  0.76575
E527  E   0.98425  0.26575  0.64212
E528  E   0.98425  0.48425  0.10788
E529  E   0.98425  0.60788  0.98425
E530  E   0.98425  0.64212  0.26575
E531  E   0.98425  0.76575  0.14212
E532  E   0.98425  0.98425  0.60788
E533  E   0.98425  0.10788  0.48425
E534  E   0.98425  0.14212  0.76575
E535  E   0.98425  0.26575  0.64212
E536  E   0.98425  0.48425  0.10788
E537  E   0.98425  0.60788  0.98425
E538  E   0.98425  0.64212  0.26575
E539  E   0.98425  0.76575  0.14212
E540  E   0.98425  0.98425  0.60788
loop_
