data_smo_Fd-3c:2  hall_number: 528, V_con: 6
_audit_creation_date              2025-03-05
_audit_creation_method            'MOFbuilder_1.0'
_symmetry_space_group_name_H-M    'P1'
_symmetry_Int_Tables_number       1
_symmetry_cell_setting            triclinic
loop_
_symmetry_equiv_pos_as_xyz
  x,y,z
_cell_length_a                    48.9898
_cell_length_b                    48.9898
_cell_length_c                    48.9898
_cell_angle_alpha                 90.0
_cell_angle_beta                  90.0
_cell_angle_gamma                 90.0
loop_
_atom_site_label
_atom_site_type_symbol
_atom_site_fract_x
_atom_site_fract_y
_atom_site_fract_z
V1    V   0.00000  0.08333  0.33333
V2    V   0.00000  0.08333  0.33333
V3    V   0.00000  0.16667  0.91667
V4    V   0.00000  0.33333  0.58333
V5    V   0.00000  0.41667  0.16667
V6    V   0.00000  0.58333  0.83333
V7    V   0.00000  0.66667  0.41667
V8    V   0.00000  0.83333  0.08333
V9    V   0.00000  0.83333  0.08333
V10   V   0.00000  0.91667  0.66667
V11   V   0.08333  0.00000  0.83333
V12   V   0.08333  0.25000  0.41667
V13   V   0.08333  0.33333  0.00000
V14   V   0.08333  0.41667  0.75000
V15   V   0.08333  0.50000  0.33333
V16   V   0.08333  0.75000  0.91667
V17   V   0.08333  0.83333  0.50000
V18   V   0.08333  0.91667  0.25000
V19   V   0.08333  0.00000  0.83333
V20   V   0.08333  0.25000  0.41667
V21   V   0.08333  0.33333  0.00000
V22   V   0.08333  0.41667  0.75000
V23   V   0.08333  0.50000  0.33333
V24   V   0.08333  0.75000  0.91667
V25   V   0.08333  0.83333  0.50000
V26   V   0.08333  0.91667  0.25000
V27   V   0.16667  0.00000  0.41667
V28   V   0.16667  0.25000  0.83333
V29   V   0.16667  0.33333  0.25000
V30   V   0.16667  0.41667  0.50000
V31   V   0.16667  0.50000  0.91667
V32   V   0.16667  0.75000  0.33333
V33   V   0.16667  0.83333  0.75000
V34   V   0.16667  0.91667  0.00000
V35   V   0.25000  0.08333  0.91667
V36   V   0.25000  0.08333  0.91667
V37   V   0.25000  0.16667  0.33333
V38   V   0.25000  0.33333  0.66667
V39   V   0.25000  0.41667  0.08333
V40   V   0.25000  0.41667  0.08333
V41   V   0.25000  0.58333  0.41667
V42   V   0.25000  0.66667  0.83333
V43   V   0.25000  0.83333  0.16667
V44   V   0.25000  0.91667  0.58333
V45   V   0.33333  0.00000  0.08333
V46   V   0.33333  0.00000  0.08333
V47   V   0.33333  0.08333  0.50000
V48   V   0.33333  0.08333  0.50000
V49   V   0.33333  0.16667  0.75000
V50   V   0.33333  0.25000  0.16667
V51   V   0.33333  0.50000  0.58333
V52   V   0.33333  0.58333  0.00000
V53   V   0.33333  0.66667  0.25000
V54   V   0.33333  0.75000  0.66667
V55   V   0.41667  0.00000  0.66667
V56   V   0.41667  0.08333  0.25000
V57   V   0.41667  0.08333  0.25000
V58   V   0.41667  0.16667  0.00000
V59   V   0.41667  0.25000  0.58333
V60   V   0.41667  0.50000  0.16667
V61   V   0.41667  0.58333  0.75000
V62   V   0.41667  0.66667  0.50000
V63   V   0.41667  0.75000  0.08333
V64   V   0.41667  0.75000  0.08333
V65   V   0.50000  0.08333  0.83333
V66   V   0.50000  0.08333  0.83333
V67   V   0.50000  0.16667  0.41667
V68   V   0.50000  0.33333  0.08333
V69   V   0.50000  0.33333  0.08333
V70   V   0.50000  0.41667  0.66667
V71   V   0.50000  0.58333  0.33333
V72   V   0.50000  0.66667  0.91667
V73   V   0.50000  0.83333  0.58333
V74   V   0.50000  0.91667  0.16667
V75   V   0.58333  0.00000  0.33333
V76   V   0.58333  0.25000  0.91667
V77   V   0.58333  0.33333  0.50000
V78   V   0.58333  0.41667  0.25000
V79   V   0.58333  0.50000  0.83333
V80   V   0.58333  0.75000  0.41667
V81   V   0.58333  0.83333  0.00000
V82   V   0.58333  0.91667  0.75000
V83   V   0.66667  0.00000  0.91667
V84   V   0.66667  0.25000  0.33333
V85   V   0.66667  0.33333  0.75000
V86   V   0.66667  0.41667  0.00000
V87   V   0.66667  0.50000  0.41667
V88   V   0.66667  0.75000  0.83333
V89   V   0.66667  0.83333  0.25000
V90   V   0.66667  0.91667  0.50000
V91   V   0.75000  0.08333  0.41667
V92   V   0.75000  0.08333  0.41667
V93   V   0.75000  0.16667  0.83333
V94   V   0.75000  0.33333  0.16667
V95   V   0.75000  0.41667  0.58333
V96   V   0.75000  0.58333  0.91667
V97   V   0.75000  0.66667  0.33333
V98   V   0.75000  0.83333  0.66667
V99   V   0.75000  0.91667  0.08333
V100  V   0.75000  0.91667  0.08333
V101  V   0.83333  0.00000  0.58333
V102  V   0.83333  0.08333  0.00000
V103  V   0.83333  0.08333  0.00000
V104  V   0.83333  0.16667  0.25000
V105  V   0.83333  0.25000  0.66667
V106  V   0.83333  0.50000  0.08333
V107  V   0.83333  0.50000  0.08333
V108  V   0.83333  0.58333  0.50000
V109  V   0.83333  0.66667  0.75000
V110  V   0.83333  0.75000  0.16667
V111  V   0.91667  0.00000  0.16667
V112  V   0.91667  0.08333  0.75000
V113  V   0.91667  0.08333  0.75000
V114  V   0.91667  0.16667  0.50000
V115  V   0.91667  0.25000  0.08333
V116  V   0.91667  0.25000  0.08333
V117  V   0.91667  0.50000  0.66667
V118  V   0.91667  0.58333  0.25000
V119  V   0.91667  0.66667  0.00000
V120  V   0.91667  0.75000  0.58333
E1    E   0.00000  0.04167  0.79167
E2    E   0.00000  0.04167  0.79167
E3    E   0.00000  0.20833  0.45833
E4    E   0.00000  0.29167  0.04167
E5    E   0.00000  0.29167  0.04167
E6    E   0.00000  0.45833  0.70833
E7    E   0.00000  0.54167  0.29167
E8    E   0.00000  0.70833  0.95833
E9    E   0.00000  0.79167  0.54167
E10   E   0.00000  0.95833  0.20833
E11   E   0.04167  0.00000  0.29167
E12   E   0.04167  0.25000  0.95833
E13   E   0.04167  0.29167  0.50000
E14   E   0.04167  0.45833  0.25000
E15   E   0.04167  0.50000  0.79167
E16   E   0.04167  0.75000  0.45833
E17   E   0.04167  0.79167  0.00000
E18   E   0.04167  0.95833  0.75000
E19   E   0.04167  0.00000  0.29167
E20   E   0.04167  0.08333  0.87500
E21   E   0.04167  0.16667  0.37500
E22   E   0.04167  0.25000  0.95833
E23   E   0.04167  0.29167  0.50000
E24   E   0.04167  0.37500  0.08333
E25   E   0.04167  0.37500  0.66667
E26   E   0.04167  0.45833  0.25000
E27   E   0.04167  0.50000  0.79167
E28   E   0.04167  0.58333  0.37500
E29   E   0.04167  0.66667  0.87500
E30   E   0.04167  0.75000  0.45833
E31   E   0.04167  0.79167  0.00000
E32   E   0.04167  0.87500  0.16667
E33   E   0.04167  0.87500  0.58333
E34   E   0.04167  0.95833  0.75000
E35   E   0.08333  0.04167  0.37500
E36   E   0.08333  0.20833  0.87500
E37   E   0.08333  0.37500  0.20833
E38   E   0.08333  0.37500  0.54167
E39   E   0.08333  0.54167  0.87500
E40   E   0.08333  0.70833  0.37500
E41   E   0.08333  0.87500  0.04167
E42   E   0.08333  0.87500  0.70833
E43   E   0.12500  0.29167  0.33333
E44   E   0.12500  0.29167  0.91667
E45   E   0.12500  0.33333  0.45833
E46   E   0.12500  0.33333  0.79167
E47   E   0.12500  0.41667  0.29167
E48   E   0.12500  0.41667  0.95833
E49   E   0.12500  0.45833  0.41667
E50   E   0.12500  0.45833  0.83333
E51   E   0.12500  0.79167  0.41667
E52   E   0.12500  0.79167  0.83333
E53   E   0.12500  0.83333  0.29167
E54   E   0.12500  0.83333  0.95833
E55   E   0.12500  0.91667  0.45833
E56   E   0.12500  0.91667  0.79167
E57   E   0.12500  0.95833  0.33333
E58   E   0.12500  0.95833  0.91667
E59   E   0.16667  0.04167  0.87500
E60   E   0.16667  0.20833  0.37500
E61   E   0.16667  0.37500  0.04167
E62   E   0.16667  0.37500  0.70833
E63   E   0.16667  0.54167  0.37500
E64   E   0.16667  0.70833  0.87500
E65   E   0.16667  0.87500  0.20833
E66   E   0.16667  0.87500  0.54167
E67   E   0.20833  0.00000  0.95833
E68   E   0.20833  0.08333  0.37500
E69   E   0.20833  0.16667  0.87500
E70   E   0.20833  0.25000  0.29167
E71   E   0.20833  0.29167  0.75000
E72   E   0.20833  0.37500  0.16667
E73   E   0.20833  0.37500  0.58333
E74   E   0.20833  0.45833  0.00000
E75   E   0.20833  0.50000  0.45833
E76   E   0.20833  0.58333  0.87500
E77   E   0.20833  0.66667  0.37500
E78   E   0.20833  0.75000  0.79167
E79   E   0.20833  0.79167  0.25000
E80   E   0.20833  0.87500  0.08333
E81   E   0.20833  0.87500  0.66667
E82   E   0.20833  0.95833  0.50000
E83   E   0.25000  0.04167  0.45833
E84   E   0.25000  0.04167  0.45833
E85   E   0.25000  0.20833  0.79167
E86   E   0.25000  0.29167  0.20833
E87   E   0.25000  0.45833  0.54167
E88   E   0.25000  0.54167  0.95833
E89   E   0.25000  0.70833  0.29167
E90   E   0.25000  0.79167  0.70833
E91   E   0.25000  0.95833  0.04167
E92   E   0.25000  0.95833  0.04167
E93   E   0.29167  0.00000  0.54167
E94   E   0.29167  0.04167  0.00000
E95   E   0.29167  0.04167  0.00000
E96   E   0.29167  0.12500  0.41667
E97   E   0.29167  0.12500  0.83333
E98   E   0.29167  0.20833  0.25000
E99   E   0.29167  0.25000  0.70833
E100  E   0.29167  0.33333  0.12500
E101  E   0.29167  0.41667  0.62500
E102  E   0.29167  0.50000  0.04167
E103  E   0.29167  0.50000  0.04167
E104  E   0.29167  0.54167  0.50000
E105  E   0.29167  0.62500  0.33333
E106  E   0.29167  0.62500  0.91667
E107  E   0.29167  0.70833  0.75000
E108  E   0.29167  0.75000  0.20833
E109  E   0.29167  0.83333  0.62500
E110  E   0.29167  0.91667  0.12500
E111  E   0.33333  0.12500  0.29167
E112  E   0.33333  0.12500  0.95833
E113  E   0.33333  0.29167  0.62500
E114  E   0.33333  0.45833  0.12500
E115  E   0.33333  0.62500  0.45833
E116  E   0.33333  0.62500  0.79167
E117  E   0.33333  0.79167  0.12500
E118  E   0.33333  0.95833  0.62500
E119  E   0.37500  0.04167  0.16667
E120  E   0.37500  0.04167  0.58333
E121  E   0.37500  0.08333  0.04167
E122  E   0.37500  0.08333  0.70833
E123  E   0.37500  0.16667  0.20833
E124  E   0.37500  0.16667  0.54167
E125  E   0.37500  0.20833  0.08333
E126  E   0.37500  0.20833  0.66667
E127  E   0.37500  0.54167  0.08333
E128  E   0.37500  0.54167  0.66667
E129  E   0.37500  0.58333  0.20833
E130  E   0.37500  0.58333  0.54167
E131  E   0.37500  0.66667  0.04167
E132  E   0.37500  0.66667  0.70833
E133  E   0.37500  0.70833  0.16667
E134  E   0.37500  0.70833  0.58333
E135  E   0.41667  0.12500  0.45833
E136  E   0.41667  0.12500  0.79167
E137  E   0.41667  0.29167  0.12500
E138  E   0.41667  0.45833  0.62500
E139  E   0.41667  0.62500  0.29167
E140  E   0.41667  0.62500  0.95833
E141  E   0.41667  0.79167  0.62500
E142  E   0.41667  0.95833  0.12500
E143  E   0.45833  0.00000  0.20833
E144  E   0.45833  0.04167  0.75000
E145  E   0.45833  0.04167  0.75000
E146  E   0.45833  0.12500  0.33333
E147  E   0.45833  0.12500  0.91667
E148  E   0.45833  0.20833  0.50000
E149  E   0.45833  0.25000  0.04167
E150  E   0.45833  0.25000  0.04167
E151  E   0.45833  0.33333  0.62500
E152  E   0.45833  0.41667  0.12500
E153  E   0.45833  0.50000  0.70833
E154  E   0.45833  0.54167  0.25000
E155  E   0.45833  0.62500  0.41667
E156  E   0.45833  0.62500  0.83333
E157  E   0.45833  0.70833  0.00000
E158  E   0.45833  0.75000  0.54167
E159  E   0.45833  0.83333  0.12500
E160  E   0.45833  0.91667  0.62500
E161  E   0.50000  0.04167  0.29167
E162  E   0.50000  0.04167  0.29167
E163  E   0.50000  0.20833  0.95833
E164  E   0.50000  0.29167  0.54167
E165  E   0.50000  0.45833  0.20833
E166  E   0.50000  0.54167  0.79167
E167  E   0.50000  0.70833  0.45833
E168  E   0.50000  0.79167  0.04167
E169  E   0.50000  0.79167  0.04167
E170  E   0.50000  0.95833  0.70833
E171  E   0.54167  0.00000  0.79167
E172  E   0.54167  0.08333  0.37500
E173  E   0.54167  0.16667  0.87500
E174  E   0.54167  0.25000  0.45833
E175  E   0.54167  0.29167  0.00000
E176  E   0.54167  0.37500  0.16667
E177  E   0.54167  0.37500  0.58333
E178  E   0.54167  0.45833  0.75000
E179  E   0.54167  0.50000  0.29167
E180  E   0.54167  0.58333  0.87500
E181  E   0.54167  0.66667  0.37500
E182  E   0.54167  0.75000  0.95833
E183  E   0.54167  0.79167  0.50000
E184  E   0.54167  0.87500  0.08333
E185  E   0.54167  0.87500  0.66667
E186  E   0.54167  0.95833  0.25000
E187  E   0.58333  0.04167  0.87500
E188  E   0.58333  0.20833  0.37500
E189  E   0.58333  0.37500  0.04167
E190  E   0.58333  0.37500  0.70833
E191  E   0.58333  0.54167  0.37500
E192  E   0.58333  0.70833  0.87500
E193  E   0.58333  0.87500  0.20833
E194  E   0.58333  0.87500  0.54167
E195  E   0.62500  0.29167  0.41667
E196  E   0.62500  0.29167  0.83333
E197  E   0.62500  0.33333  0.29167
E198  E   0.62500  0.33333  0.95833
E199  E   0.62500  0.41667  0.45833
E200  E   0.62500  0.41667  0.79167
E201  E   0.62500  0.45833  0.33333
E202  E   0.62500  0.45833  0.91667
E203  E   0.62500  0.79167  0.33333
E204  E   0.62500  0.79167  0.91667
E205  E   0.62500  0.83333  0.45833
E206  E   0.62500  0.83333  0.79167
E207  E   0.62500  0.91667  0.29167
E208  E   0.62500  0.91667  0.95833
E209  E   0.62500  0.95833  0.41667
E210  E   0.62500  0.95833  0.83333
E211  E   0.66667  0.04167  0.37500
E212  E   0.66667  0.20833  0.87500
E213  E   0.66667  0.37500  0.20833
E214  E   0.66667  0.37500  0.54167
E215  E   0.66667  0.54167  0.87500
E216  E   0.66667  0.70833  0.37500
E217  E   0.66667  0.87500  0.04167
E218  E   0.66667  0.87500  0.70833
E219  E   0.70833  0.00000  0.45833
E220  E   0.70833  0.08333  0.87500
E221  E   0.70833  0.16667  0.37500
E222  E   0.70833  0.25000  0.79167
E223  E   0.70833  0.29167  0.25000
E224  E   0.70833  0.37500  0.08333
E225  E   0.70833  0.37500  0.66667
E226  E   0.70833  0.45833  0.50000
E227  E   0.70833  0.50000  0.95833
E228  E   0.70833  0.58333  0.37500
E229  E   0.70833  0.66667  0.87500
E230  E   0.70833  0.75000  0.29167
E231  E   0.70833  0.79167  0.75000
E232  E   0.70833  0.87500  0.16667
E233  E   0.70833  0.87500  0.58333
E234  E   0.70833  0.95833  0.00000
E235  E   0.75000  0.04167  0.95833
E236  E   0.75000  0.04167  0.95833
E237  E   0.75000  0.20833  0.29167
E238  E   0.75000  0.29167  0.70833
E239  E   0.75000  0.45833  0.04167
E240  E   0.75000  0.45833  0.04167
E241  E   0.75000  0.54167  0.45833
E242  E   0.75000  0.70833  0.79167
E243  E   0.75000  0.79167  0.20833
E244  E   0.75000  0.95833  0.54167
E245  E   0.79167  0.00000  0.04167
E246  E   0.79167  0.00000  0.04167
E247  E   0.79167  0.04167  0.50000
E248  E   0.79167  0.04167  0.50000
E249  E   0.79167  0.12500  0.33333
E250  E   0.79167  0.12500  0.91667
E251  E   0.79167  0.20833  0.75000
E252  E   0.79167  0.25000  0.20833
E253  E   0.79167  0.33333  0.62500
E254  E   0.79167  0.41667  0.12500
E255  E   0.79167  0.50000  0.54167
E256  E   0.79167  0.54167  0.00000
E257  E   0.79167  0.62500  0.41667
E258  E   0.79167  0.62500  0.83333
E259  E   0.79167  0.70833  0.25000
E260  E   0.79167  0.75000  0.70833
E261  E   0.79167  0.83333  0.12500
E262  E   0.79167  0.91667  0.62500
E263  E   0.83333  0.12500  0.45833
E264  E   0.83333  0.12500  0.79167
E265  E   0.83333  0.29167  0.12500
E266  E   0.83333  0.45833  0.62500
E267  E   0.83333  0.62500  0.29167
E268  E   0.83333  0.62500  0.95833
E269  E   0.83333  0.79167  0.62500
E270  E   0.83333  0.95833  0.12500
E271  E   0.87500  0.04167  0.08333
E272  E   0.87500  0.04167  0.66667
E273  E   0.87500  0.08333  0.20833
E274  E   0.87500  0.08333  0.54167
E275  E   0.87500  0.16667  0.04167
E276  E   0.87500  0.16667  0.70833
E277  E   0.87500  0.20833  0.16667
E278  E   0.87500  0.20833  0.58333
E279  E   0.87500  0.54167  0.16667
E280  E   0.87500  0.54167  0.58333
E281  E   0.87500  0.58333  0.04167
E282  E   0.87500  0.58333  0.70833
E283  E   0.87500  0.66667  0.20833
E284  E   0.87500  0.66667  0.54167
E285  E   0.87500  0.70833  0.08333
E286  E   0.87500  0.70833  0.66667
E287  E   0.91667  0.12500  0.29167
E288  E   0.91667  0.12500  0.95833
E289  E   0.91667  0.29167  0.62500
E290  E   0.91667  0.45833  0.12500
E291  E   0.91667  0.62500  0.45833
E292  E   0.91667  0.62500  0.79167
E293  E   0.91667  0.79167  0.12500
E294  E   0.91667  0.95833  0.62500
E295  E   0.95833  0.00000  0.70833
E296  E   0.95833  0.04167  0.25000
E297  E   0.95833  0.04167  0.25000
E298  E   0.95833  0.12500  0.41667
E299  E   0.95833  0.12500  0.83333
E300  E   0.95833  0.20833  0.00000
E301  E   0.95833  0.25000  0.54167
E302  E   0.95833  0.33333  0.12500
E303  E   0.95833  0.41667  0.62500
E304  E   0.95833  0.50000  0.20833
E305  E   0.95833  0.54167  0.75000
E306  E   0.95833  0.62500  0.33333
E307  E   0.95833  0.62500  0.91667
E308  E   0.95833  0.70833  0.50000
E309  E   0.95833  0.75000  0.04167
E310  E   0.95833  0.75000  0.04167
E311  E   0.95833  0.83333  0.62500
E312  E   0.95833  0.91667  0.12500
loop_
