data_snh_Im-3  hall_number: 500, V_con: 6
_audit_creation_date              2025-03-05
_audit_creation_method            'MOFbuilder_1.0'
_symmetry_space_group_name_H-M    'P1'
_symmetry_Int_Tables_number       1
_symmetry_cell_setting            triclinic
loop_
_symmetry_equiv_pos_as_xyz
  x,y,z
_cell_length_a                    27.3204
_cell_length_b                    27.3204
_cell_length_c                    27.3204
_cell_angle_alpha                 90.0
_cell_angle_beta                  90.0
_cell_angle_gamma                 90.0
loop_
_atom_site_label
_atom_site_type_symbol
_atom_site_fract_x
_atom_site_fract_y
_atom_site_fract_z
V1    V   0.00000  0.18301  0.31699
V2    V   0.00000  0.18301  0.68301
V3    V   0.00000  0.81699  0.31699
V4    V   0.00000  0.81699  0.68301
V5    V   0.18301  0.31699  0.00000
V6    V   0.18301  0.50000  0.31699
V7    V   0.18301  0.50000  0.68301
V8    V   0.18301  0.68301  0.00000
V9    V   0.31699  0.00000  0.18301
V10   V   0.31699  0.00000  0.81699
V11   V   0.31699  0.18301  0.50000
V12   V   0.31699  0.81699  0.50000
V13   V   0.50000  0.31699  0.18301
V14   V   0.50000  0.31699  0.81699
V15   V   0.50000  0.68301  0.18301
V16   V   0.50000  0.68301  0.81699
V17   V   0.68301  0.00000  0.18301
V18   V   0.68301  0.00000  0.81699
V19   V   0.68301  0.18301  0.50000
V20   V   0.68301  0.81699  0.50000
V21   V   0.81699  0.31699  0.00000
V22   V   0.81699  0.50000  0.31699
V23   V   0.81699  0.50000  0.68301
V24   V   0.81699  0.68301  0.00000
E1    E   0.00000  0.00000  0.31699
E2    E   0.00000  0.00000  0.68301
E3    E   0.00000  0.18301  0.50000
E4    E   0.00000  0.31699  0.00000
E5    E   0.00000  0.50000  0.31699
E6    E   0.00000  0.50000  0.68301
E7    E   0.00000  0.68301  0.00000
E8    E   0.00000  0.81699  0.50000
E9    E   0.09151  0.34151  0.31699
E10   E   0.09151  0.34151  0.68301
E11   E   0.09151  0.65849  0.31699
E12   E   0.09151  0.65849  0.68301
E13   E   0.15849  0.18301  0.40849
E14   E   0.15849  0.18301  0.59151
E15   E   0.15849  0.81699  0.40849
E16   E   0.15849  0.81699  0.59151
E17   E   0.18301  0.40849  0.15849
E18   E   0.18301  0.40849  0.84151
E19   E   0.18301  0.50000  0.00000
E20   E   0.18301  0.50000  0.50000
E21   E   0.18301  0.59151  0.15849
E22   E   0.18301  0.59151  0.84151
E23   E   0.31699  0.00000  0.00000
E24   E   0.31699  0.00000  0.50000
E25   E   0.31699  0.09151  0.34151
E26   E   0.31699  0.09151  0.65849
E27   E   0.31699  0.90849  0.34151
E28   E   0.31699  0.90849  0.65849
E29   E   0.34151  0.31699  0.09151
E30   E   0.34151  0.31699  0.90849
E31   E   0.34151  0.68301  0.09151
E32   E   0.34151  0.68301  0.90849
E33   E   0.40849  0.15849  0.18301
E34   E   0.40849  0.15849  0.81699
E35   E   0.40849  0.84151  0.18301
E36   E   0.40849  0.84151  0.81699
E37   E   0.50000  0.00000  0.18301
E38   E   0.50000  0.00000  0.81699
E39   E   0.50000  0.18301  0.50000
E40   E   0.50000  0.31699  0.00000
E41   E   0.50000  0.50000  0.18301
E42   E   0.50000  0.50000  0.81699
E43   E   0.50000  0.68301  0.00000
E44   E   0.50000  0.81699  0.50000
E45   E   0.59151  0.15849  0.18301
E46   E   0.59151  0.15849  0.81699
E47   E   0.59151  0.84151  0.18301
E48   E   0.59151  0.84151  0.81699
E49   E   0.65849  0.31699  0.09151
E50   E   0.65849  0.31699  0.90849
E51   E   0.65849  0.68301  0.09151
E52   E   0.65849  0.68301  0.90849
E53   E   0.68301  0.00000  0.00000
E54   E   0.68301  0.00000  0.50000
E55   E   0.68301  0.09151  0.34151
E56   E   0.68301  0.09151  0.65849
E57   E   0.68301  0.90849  0.34151
E58   E   0.68301  0.90849  0.65849
E59   E   0.81699  0.40849  0.15849
E60   E   0.81699  0.40849  0.84151
E61   E   0.81699  0.50000  0.00000
E62   E   0.81699  0.50000  0.50000
E63   E   0.81699  0.59151  0.15849
E64   E   0.81699  0.59151  0.84151
E65   E   0.84151  0.18301  0.40849
E66   E   0.84151  0.18301  0.59151
E67   E   0.84151  0.81699  0.40849
E68   E   0.84151  0.81699  0.59151
E69   E   0.90849  0.34151  0.31699
E70   E   0.90849  0.34151  0.68301
E71   E   0.90849  0.65849  0.31699
E72   E   0.90849  0.65849  0.68301
loop_
