data_snv-x_P432  hall_number: 503, V_con: 7
_audit_creation_date              2025-03-05
_audit_creation_method            'MOFbuilder_1.0'
_symmetry_space_group_name_H-M    'P1'
_symmetry_Int_Tables_number       1
_symmetry_cell_setting            triclinic
loop_
_symmetry_equiv_pos_as_xyz
  x,y,z
_cell_length_a                    31.2208
_cell_length_b                    31.2208
_cell_length_c                    31.2208
_cell_angle_alpha                 90.0
_cell_angle_beta                  90.0
_cell_angle_gamma                 90.0
loop_
_atom_site_label
_atom_site_type_symbol
_atom_site_fract_x
_atom_site_fract_y
_atom_site_fract_z
V1    V   0.13448  0.29741  0.60143
V2    V   0.13448  0.39857  0.29741
V3    V   0.13448  0.60143  0.70259
V4    V   0.13448  0.70259  0.39857
V5    V   0.29741  0.13448  0.39857
V6    V   0.29741  0.39857  0.86552
V7    V   0.29741  0.60143  0.13448
V8    V   0.29741  0.86552  0.60143
V9    V   0.39857  0.13448  0.70259
V10   V   0.39857  0.29741  0.13448
V11   V   0.39857  0.70259  0.86552
V12   V   0.39857  0.86552  0.29741
V13   V   0.60143  0.13448  0.29741
V14   V   0.60143  0.29741  0.86552
V15   V   0.60143  0.70259  0.13448
V16   V   0.60143  0.86552  0.70259
V17   V   0.70259  0.13448  0.60143
V18   V   0.70259  0.39857  0.13448
V19   V   0.70259  0.60143  0.86552
V20   V   0.70259  0.86552  0.39857
V21   V   0.86552  0.29741  0.39857
V22   V   0.86552  0.39857  0.70259
V23   V   0.86552  0.60143  0.29741
V24   V   0.86552  0.70259  0.60143
E1    E   0.00000  0.29741  0.50000
E2    E   0.00000  0.34799  0.34799
E3    E   0.00000  0.34799  0.65201
E4    E   0.00000  0.50000  0.29741
E5    E   0.00000  0.50000  0.70259
E6    E   0.00000  0.65201  0.34799
E7    E   0.00000  0.65201  0.65201
E8    E   0.00000  0.70259  0.50000
E9    E   0.13448  0.34799  0.44942
E10   E   0.13448  0.44942  0.65201
E11   E   0.13448  0.55058  0.34799
E12   E   0.13448  0.65201  0.55058
E13   E   0.21594  0.21594  0.50000
E14   E   0.21594  0.26652  0.34799
E15   E   0.21594  0.34799  0.73348
E16   E   0.21594  0.50000  0.21594
E17   E   0.21594  0.50000  0.78406
E18   E   0.21594  0.65201  0.26652
E19   E   0.21594  0.73348  0.65201
E20   E   0.21594  0.78406  0.50000
E21   E   0.26652  0.21594  0.65201
E22   E   0.26652  0.34799  0.21594
E23   E   0.26652  0.65201  0.78406
E24   E   0.26652  0.78406  0.34799
E25   E   0.29741  0.00000  0.50000
E26   E   0.29741  0.50000  0.00000
E27   E   0.34799  0.00000  0.34799
E28   E   0.34799  0.00000  0.65201
E29   E   0.34799  0.13448  0.55058
E30   E   0.34799  0.21594  0.26652
E31   E   0.34799  0.26652  0.78406
E32   E   0.34799  0.34799  0.00000
E33   E   0.34799  0.44942  0.13448
E34   E   0.34799  0.55058  0.86552
E35   E   0.34799  0.65201  0.00000
E36   E   0.34799  0.73348  0.21594
E37   E   0.34799  0.78406  0.73348
E38   E   0.34799  0.86552  0.44942
E39   E   0.44942  0.13448  0.34799
E40   E   0.44942  0.34799  0.86552
E41   E   0.44942  0.65201  0.13448
E42   E   0.44942  0.86552  0.65201
E43   E   0.50000  0.00000  0.29741
E44   E   0.50000  0.00000  0.70259
E45   E   0.50000  0.21594  0.21594
E46   E   0.50000  0.21594  0.78406
E47   E   0.50000  0.29741  0.00000
E48   E   0.50000  0.70259  0.00000
E49   E   0.50000  0.78406  0.21594
E50   E   0.50000  0.78406  0.78406
E51   E   0.55058  0.13448  0.65201
E52   E   0.55058  0.34799  0.13448
E53   E   0.55058  0.65201  0.86552
E54   E   0.55058  0.86552  0.34799
E55   E   0.65201  0.00000  0.34799
E56   E   0.65201  0.00000  0.65201
E57   E   0.65201  0.13448  0.44942
E58   E   0.65201  0.21594  0.73348
E59   E   0.65201  0.26652  0.21594
E60   E   0.65201  0.34799  0.00000
E61   E   0.65201  0.44942  0.86552
E62   E   0.65201  0.55058  0.13448
E63   E   0.65201  0.65201  0.00000
E64   E   0.65201  0.73348  0.78406
E65   E   0.65201  0.78406  0.26652
E66   E   0.65201  0.86552  0.55058
E67   E   0.70259  0.00000  0.50000
E68   E   0.70259  0.50000  0.00000
E69   E   0.73348  0.21594  0.34799
E70   E   0.73348  0.34799  0.78406
E71   E   0.73348  0.65201  0.21594
E72   E   0.73348  0.78406  0.65201
E73   E   0.78406  0.21594  0.50000
E74   E   0.78406  0.26652  0.65201
E75   E   0.78406  0.34799  0.26652
E76   E   0.78406  0.50000  0.21594
E77   E   0.78406  0.50000  0.78406
E78   E   0.78406  0.65201  0.73348
E79   E   0.78406  0.73348  0.34799
E80   E   0.78406  0.78406  0.50000
E81   E   0.86552  0.34799  0.55058
E82   E   0.86552  0.44942  0.34799
E83   E   0.86552  0.55058  0.65201
E84   E   0.86552  0.65201  0.44942
loop_
