data_sod-a_Im-3m  hall_number: 529, V_con: 4
_audit_creation_date              2025-03-05
_audit_creation_method            'MOFbuilder_1.0'
_symmetry_space_group_name_H-M    'P1'
_symmetry_Int_Tables_number       1
_symmetry_cell_setting            triclinic
loop_
_symmetry_equiv_pos_as_xyz
  x,y,z
_cell_length_a                    62.4264
_cell_length_b                    62.4264
_cell_length_c                    62.4264
_cell_angle_alpha                 90.0
_cell_angle_beta                  90.0
_cell_angle_gamma                 90.0
loop_
_atom_site_label
_atom_site_type_symbol
_atom_site_fract_x
_atom_site_fract_y
_atom_site_fract_z
V1    V   0.00000  0.30664  0.41991
V2    V   0.00000  0.30664  0.58009
V3    V   0.00000  0.41991  0.30664
V4    V   0.00000  0.41991  0.69336
V5    V   0.00000  0.58009  0.30664
V6    V   0.00000  0.58009  0.69336
V7    V   0.00000  0.69336  0.41991
V8    V   0.00000  0.69336  0.58009
V9    V   0.08009  0.19336  0.50000
V10   V   0.08009  0.50000  0.19336
V11   V   0.08009  0.50000  0.80664
V12   V   0.08009  0.80664  0.50000
V13   V   0.19336  0.08009  0.50000
V14   V   0.19336  0.50000  0.08009
V15   V   0.19336  0.50000  0.91991
V16   V   0.19336  0.91991  0.50000
V17   V   0.30664  0.00000  0.41991
V18   V   0.30664  0.00000  0.58009
V19   V   0.30664  0.41991  0.00000
V20   V   0.30664  0.58009  0.00000
V21   V   0.41991  0.00000  0.30664
V22   V   0.41991  0.00000  0.69336
V23   V   0.41991  0.30664  0.00000
V24   V   0.41991  0.69336  0.00000
V25   V   0.50000  0.08009  0.19336
V26   V   0.50000  0.08009  0.80664
V27   V   0.50000  0.19336  0.08009
V28   V   0.50000  0.19336  0.91991
V29   V   0.50000  0.80664  0.08009
V30   V   0.50000  0.80664  0.91991
V31   V   0.50000  0.91991  0.19336
V32   V   0.50000  0.91991  0.80664
V33   V   0.58009  0.00000  0.30664
V34   V   0.58009  0.00000  0.69336
V35   V   0.58009  0.30664  0.00000
V36   V   0.58009  0.69336  0.00000
V37   V   0.69336  0.00000  0.41991
V38   V   0.69336  0.00000  0.58009
V39   V   0.69336  0.41991  0.00000
V40   V   0.69336  0.58009  0.00000
V41   V   0.80664  0.08009  0.50000
V42   V   0.80664  0.50000  0.08009
V43   V   0.80664  0.50000  0.91991
V44   V   0.80664  0.91991  0.50000
V45   V   0.91991  0.19336  0.50000
V46   V   0.91991  0.50000  0.19336
V47   V   0.91991  0.50000  0.80664
V48   V   0.91991  0.80664  0.50000
E1    E   0.00000  0.19336  0.50000
E2    E   0.00000  0.30664  0.50000
E3    E   0.00000  0.36327  0.36327
E4    E   0.00000  0.36327  0.63673
E5    E   0.00000  0.50000  0.19336
E6    E   0.00000  0.50000  0.30664
E7    E   0.00000  0.50000  0.69336
E8    E   0.00000  0.50000  0.80664
E9    E   0.00000  0.63673  0.36327
E10   E   0.00000  0.63673  0.63673
E11   E   0.00000  0.69336  0.50000
E12   E   0.00000  0.80664  0.50000
E13   E   0.04005  0.25000  0.45995
E14   E   0.04005  0.25000  0.54005
E15   E   0.04005  0.45995  0.25000
E16   E   0.04005  0.45995  0.75000
E17   E   0.04005  0.54005  0.25000
E18   E   0.04005  0.54005  0.75000
E19   E   0.04005  0.75000  0.45995
E20   E   0.04005  0.75000  0.54005
E21   E   0.04005  0.25000  0.45995
E22   E   0.04005  0.25000  0.54005
E23   E   0.04005  0.45995  0.25000
E24   E   0.04005  0.45995  0.75000
E25   E   0.04005  0.54005  0.25000
E26   E   0.04005  0.54005  0.75000
E27   E   0.04005  0.75000  0.45995
E28   E   0.04005  0.75000  0.54005
E29   E   0.13673  0.13673  0.50000
E30   E   0.13673  0.50000  0.13673
E31   E   0.13673  0.50000  0.86327
E32   E   0.13673  0.86327  0.50000
E33   E   0.19336  0.00000  0.50000
E34   E   0.19336  0.50000  0.00000
E35   E   0.25000  0.04005  0.45995
E36   E   0.25000  0.04005  0.54005
E37   E   0.25000  0.04005  0.45995
E38   E   0.25000  0.04005  0.54005
E39   E   0.25000  0.45995  0.04005
E40   E   0.25000  0.45995  0.95995
E41   E   0.25000  0.45995  0.04005
E42   E   0.25000  0.45995  0.95995
E43   E   0.25000  0.54005  0.04005
E44   E   0.25000  0.54005  0.95995
E45   E   0.25000  0.54005  0.04005
E46   E   0.25000  0.54005  0.95995
E47   E   0.25000  0.95995  0.45995
E48   E   0.25000  0.95995  0.54005
E49   E   0.25000  0.95995  0.45995
E50   E   0.25000  0.95995  0.54005
E51   E   0.30664  0.00000  0.50000
E52   E   0.30664  0.50000  0.00000
E53   E   0.36327  0.00000  0.36327
E54   E   0.36327  0.00000  0.63673
E55   E   0.36327  0.36327  0.00000
E56   E   0.36327  0.63673  0.00000
E57   E   0.45995  0.04005  0.25000
E58   E   0.45995  0.04005  0.75000
E59   E   0.45995  0.25000  0.04005
E60   E   0.45995  0.25000  0.95995
E61   E   0.45995  0.75000  0.04005
E62   E   0.45995  0.75000  0.95995
E63   E   0.45995  0.95995  0.25000
E64   E   0.45995  0.95995  0.75000
E65   E   0.45995  0.04005  0.25000
E66   E   0.45995  0.04005  0.75000
E67   E   0.45995  0.25000  0.04005
E68   E   0.45995  0.25000  0.95995
E69   E   0.45995  0.75000  0.04005
E70   E   0.45995  0.75000  0.95995
E71   E   0.45995  0.95995  0.25000
E72   E   0.45995  0.95995  0.75000
E73   E   0.50000  0.00000  0.19336
E74   E   0.50000  0.00000  0.30664
E75   E   0.50000  0.00000  0.69336
E76   E   0.50000  0.00000  0.80664
E77   E   0.50000  0.13673  0.13673
E78   E   0.50000  0.13673  0.86327
E79   E   0.50000  0.19336  0.00000
E80   E   0.50000  0.30664  0.00000
E81   E   0.50000  0.69336  0.00000
E82   E   0.50000  0.80664  0.00000
E83   E   0.50000  0.86327  0.13673
E84   E   0.50000  0.86327  0.86327
E85   E   0.54005  0.04005  0.25000
E86   E   0.54005  0.04005  0.75000
E87   E   0.54005  0.25000  0.04005
E88   E   0.54005  0.25000  0.95995
E89   E   0.54005  0.75000  0.04005
E90   E   0.54005  0.75000  0.95995
E91   E   0.54005  0.95995  0.25000
E92   E   0.54005  0.95995  0.75000
E93   E   0.54005  0.04005  0.25000
E94   E   0.54005  0.04005  0.75000
E95   E   0.54005  0.25000  0.04005
E96   E   0.54005  0.25000  0.95995
E97   E   0.54005  0.75000  0.04005
E98   E   0.54005  0.75000  0.95995
E99   E   0.54005  0.95995  0.25000
E100  E   0.54005  0.95995  0.75000
E101  E   0.63673  0.00000  0.36327
E102  E   0.63673  0.00000  0.63673
E103  E   0.63673  0.36327  0.00000
E104  E   0.63673  0.63673  0.00000
E105  E   0.69336  0.00000  0.50000
E106  E   0.69336  0.50000  0.00000
E107  E   0.75000  0.04005  0.45995
E108  E   0.75000  0.04005  0.54005
E109  E   0.75000  0.04005  0.45995
E110  E   0.75000  0.04005  0.54005
E111  E   0.75000  0.45995  0.04005
E112  E   0.75000  0.45995  0.95995
E113  E   0.75000  0.45995  0.04005
E114  E   0.75000  0.45995  0.95995
E115  E   0.75000  0.54005  0.04005
E116  E   0.75000  0.54005  0.95995
E117  E   0.75000  0.54005  0.04005
E118  E   0.75000  0.54005  0.95995
E119  E   0.75000  0.95995  0.45995
E120  E   0.75000  0.95995  0.54005
E121  E   0.75000  0.95995  0.45995
E122  E   0.75000  0.95995  0.54005
E123  E   0.80664  0.00000  0.50000
E124  E   0.80664  0.50000  0.00000
E125  E   0.86327  0.13673  0.50000
E126  E   0.86327  0.50000  0.13673
E127  E   0.86327  0.50000  0.86327
E128  E   0.86327  0.86327  0.50000
E129  E   0.95995  0.25000  0.45995
E130  E   0.95995  0.25000  0.54005
E131  E   0.95995  0.45995  0.25000
E132  E   0.95995  0.45995  0.75000
E133  E   0.95995  0.54005  0.25000
E134  E   0.95995  0.54005  0.75000
E135  E   0.95995  0.75000  0.45995
E136  E   0.95995  0.75000  0.54005
E137  E   0.95995  0.25000  0.45995
E138  E   0.95995  0.25000  0.54005
E139  E   0.95995  0.45995  0.25000
E140  E   0.95995  0.45995  0.75000
E141  E   0.95995  0.54005  0.25000
E142  E   0.95995  0.54005  0.75000
E143  E   0.95995  0.75000  0.45995
E144  E   0.95995  0.75000  0.54005
loop_
