data_soh_Fddd:2  hall_number: 336, V_con: 5
_audit_creation_date              2025-03-05
_audit_creation_method            'MOFbuilder_1.0'
_symmetry_space_group_name_H-M    'P1'
_symmetry_Int_Tables_number       1
_symmetry_cell_setting            triclinic
loop_
_symmetry_equiv_pos_as_xyz
  x,y,z
_cell_length_a                    54.3724
_cell_length_b                    24.3966
_cell_length_c                    27.1871
_cell_angle_alpha                 90.0
_cell_angle_beta                  90.0
_cell_angle_gamma                 90.0
loop_
_atom_site_label
_atom_site_type_symbol
_atom_site_fract_x
_atom_site_fract_y
_atom_site_fract_z
V1    V   0.03747  0.06216  0.80005
V2    V   0.03747  0.18784  0.44995
V3    V   0.03747  0.56216  0.30005
V4    V   0.03747  0.68784  0.94995
V5    V   0.21253  0.06216  0.44995
V6    V   0.21253  0.18784  0.80005
V7    V   0.21253  0.56216  0.94995
V8    V   0.21253  0.68784  0.30005
V9    V   0.28747  0.31216  0.19995
V10   V   0.28747  0.43784  0.55005
V11   V   0.28747  0.81216  0.69995
V12   V   0.28747  0.93784  0.05005
V13   V   0.46253  0.31216  0.55005
V14   V   0.46253  0.43784  0.19995
V15   V   0.46253  0.81216  0.05005
V16   V   0.46253  0.93784  0.69995
V17   V   0.53747  0.06216  0.30005
V18   V   0.53747  0.18784  0.94995
V19   V   0.53747  0.56216  0.80005
V20   V   0.53747  0.68784  0.44995
V21   V   0.71253  0.06216  0.94995
V22   V   0.71253  0.18784  0.30005
V23   V   0.71253  0.56216  0.44995
V24   V   0.71253  0.68784  0.80005
V25   V   0.78747  0.31216  0.69995
V26   V   0.78747  0.43784  0.05005
V27   V   0.78747  0.81216  0.19995
V28   V   0.78747  0.93784  0.55005
V29   V   0.96253  0.31216  0.05005
V30   V   0.96253  0.43784  0.69995
V31   V   0.96253  0.81216  0.55005
V32   V   0.96253  0.93784  0.19995
E1    E   0.00000  0.06284  0.32495
E2    E   0.00000  0.18716  0.92505
E3    E   0.00000  0.31284  0.57495
E4    E   0.00000  0.43716  0.17505
E5    E   0.00000  0.56284  0.82495
E6    E   0.00000  0.68716  0.42505
E7    E   0.00000  0.81284  0.07495
E8    E   0.00000  0.93716  0.67505
E9    E   0.03747  0.12500  0.62500
E10   E   0.03747  0.37500  0.37500
E11   E   0.03747  0.62500  0.12500
E12   E   0.03747  0.87500  0.87500
E13   E   0.12500  0.12500  0.44995
E14   E   0.12500  0.12500  0.80005
E15   E   0.12500  0.62500  0.30005
E16   E   0.12500  0.62500  0.94995
E17   E   0.21253  0.12500  0.62500
E18   E   0.21253  0.37500  0.87500
E19   E   0.21253  0.62500  0.12500
E20   E   0.21253  0.87500  0.37500
E21   E   0.25000  0.06284  0.92505
E22   E   0.25000  0.18716  0.32495
E23   E   0.25000  0.31284  0.67505
E24   E   0.25000  0.43716  0.07495
E25   E   0.25000  0.56284  0.42505
E26   E   0.25000  0.68716  0.82495
E27   E   0.25000  0.81284  0.17505
E28   E   0.25000  0.93716  0.57495
E29   E   0.28747  0.12500  0.12500
E30   E   0.28747  0.37500  0.37500
E31   E   0.28747  0.62500  0.62500
E32   E   0.28747  0.87500  0.87500
E33   E   0.37500  0.37500  0.19995
E34   E   0.37500  0.37500  0.55005
E35   E   0.37500  0.87500  0.05005
E36   E   0.37500  0.87500  0.69995
E37   E   0.46253  0.12500  0.62500
E38   E   0.46253  0.37500  0.37500
E39   E   0.46253  0.62500  0.12500
E40   E   0.46253  0.87500  0.87500
E41   E   0.50000  0.06284  0.82495
E42   E   0.50000  0.18716  0.42505
E43   E   0.50000  0.31284  0.07495
E44   E   0.50000  0.43716  0.67505
E45   E   0.50000  0.56284  0.32495
E46   E   0.50000  0.68716  0.92505
E47   E   0.50000  0.81284  0.57495
E48   E   0.50000  0.93716  0.17505
E49   E   0.53747  0.12500  0.12500
E50   E   0.53747  0.37500  0.87500
E51   E   0.53747  0.62500  0.62500
E52   E   0.53747  0.87500  0.37500
E53   E   0.62500  0.12500  0.30005
E54   E   0.62500  0.12500  0.94995
E55   E   0.62500  0.62500  0.44995
E56   E   0.62500  0.62500  0.80005
E57   E   0.71253  0.12500  0.12500
E58   E   0.71253  0.37500  0.37500
E59   E   0.71253  0.62500  0.62500
E60   E   0.71253  0.87500  0.87500
E61   E   0.75000  0.06284  0.42505
E62   E   0.75000  0.18716  0.82495
E63   E   0.75000  0.31284  0.17505
E64   E   0.75000  0.43716  0.57495
E65   E   0.75000  0.56284  0.92505
E66   E   0.75000  0.68716  0.32495
E67   E   0.75000  0.81284  0.67505
E68   E   0.75000  0.93716  0.07495
E69   E   0.78747  0.12500  0.62500
E70   E   0.78747  0.37500  0.87500
E71   E   0.78747  0.62500  0.12500
E72   E   0.78747  0.87500  0.37500
E73   E   0.87500  0.37500  0.05005
E74   E   0.87500  0.37500  0.69995
E75   E   0.87500  0.87500  0.19995
E76   E   0.87500  0.87500  0.55005
E77   E   0.96253  0.12500  0.12500
E78   E   0.96253  0.37500  0.87500
E79   E   0.96253  0.62500  0.62500
E80   E   0.96253  0.87500  0.37500
loop_
