data_srd-l_P4232  hall_number: 504, V_con: 3, EC_con: 3
_audit_creation_date              2025-03-05
_audit_creation_method            'MOFbuilder_1.0'
_symmetry_space_group_name_H-M    'P1'
_symmetry_Int_Tables_number       1
_symmetry_cell_setting            triclinic
loop_
_symmetry_equiv_pos_as_xyz
  x,y,z
_cell_length_a                    50.3633
_cell_length_b                    50.3633
_cell_length_c                    50.3633
_cell_angle_alpha                 90.0
_cell_angle_beta                  90.0
_cell_angle_gamma                 90.0
loop_
_atom_site_label
_atom_site_type_symbol
_atom_site_fract_x
_atom_site_fract_y
_atom_site_fract_z
V1    V   0.00000  0.09928  0.50000
V2    V   0.00000  0.40072  0.50000
V3    V   0.00000  0.59928  0.50000
V4    V   0.00000  0.90072  0.50000
V5    V   0.09928  0.50000  0.00000
V6    V   0.40072  0.50000  0.00000
V7    V   0.50000  0.00000  0.09928
V8    V   0.50000  0.00000  0.40072
V9    V   0.50000  0.00000  0.59928
V10   V   0.50000  0.00000  0.90072
V11   V   0.59928  0.50000  0.00000
V12   V   0.90072  0.50000  0.00000
EC1    EC   0.10192  0.34057  0.65943
EC2    EC   0.10192  0.65943  0.34057
EC3    EC   0.15943  0.15943  0.60192
EC4    EC   0.15943  0.39808  0.84057
EC5    EC   0.15943  0.60192  0.15943
EC6    EC   0.15943  0.84057  0.39808
EC7    EC   0.34057  0.10192  0.65943
EC8    EC   0.34057  0.34057  0.89808
EC9    EC   0.34057  0.65943  0.10192
EC10   EC   0.34057  0.89808  0.34057
EC11   EC   0.39808  0.15943  0.84057
EC12   EC   0.39808  0.84057  0.15943
EC13   EC   0.60192  0.15943  0.15943
EC14   EC   0.60192  0.84057  0.84057
EC15   EC   0.65943  0.10192  0.34057
EC16   EC   0.65943  0.34057  0.10192
EC17   EC   0.65943  0.65943  0.89808
EC18   EC   0.65943  0.89808  0.65943
EC19   EC   0.84057  0.15943  0.39808
EC20   EC   0.84057  0.39808  0.15943
EC21   EC   0.84057  0.60192  0.84057
EC22   EC   0.84057  0.84057  0.60192
EC23   EC   0.89808  0.34057  0.34057
EC24   EC   0.89808  0.65943  0.65943
E1    E   0.00000  0.00000  0.50000
E2    E   0.00000  0.50000  0.00000
E3    E   0.00000  0.50000  0.50000
E4    E   0.05096  0.37065  0.57972
E5    E   0.05096  0.62935  0.42028
E6    E   0.07972  0.12935  0.55096
E7    E   0.07972  0.87065  0.44904
E8    E   0.12935  0.44904  0.92028
E9    E   0.12935  0.55096  0.07972
E10   E   0.13068  0.25000  0.63068
E11   E   0.13068  0.36932  0.75000
E12   E   0.13068  0.63068  0.25000
E13   E   0.13068  0.75000  0.36932
E14   E   0.13068  0.25000  0.63068
E15   E   0.13068  0.36932  0.75000
E16   E   0.13068  0.63068  0.25000
E17   E   0.13068  0.75000  0.36932
E18   E   0.25000  0.13068  0.63068
E19   E   0.25000  0.13068  0.63068
E20   E   0.25000  0.36932  0.86932
E21   E   0.25000  0.63068  0.13068
E22   E   0.25000  0.63068  0.13068
E23   E   0.25000  0.86932  0.36932
E24   E   0.36932  0.13068  0.75000
E25   E   0.36932  0.13068  0.75000
E26   E   0.36932  0.25000  0.86932
E27   E   0.36932  0.75000  0.13068
E28   E   0.36932  0.75000  0.13068
E29   E   0.36932  0.86932  0.25000
E30   E   0.37065  0.42028  0.94904
E31   E   0.37065  0.57972  0.05096
E32   E   0.42028  0.05096  0.62935
E33   E   0.42028  0.94904  0.37065
E34   E   0.44904  0.07972  0.87065
E35   E   0.44904  0.92028  0.12935
E36   E   0.50000  0.00000  0.00000
E37   E   0.50000  0.00000  0.50000
E38   E   0.50000  0.50000  0.00000
E39   E   0.55096  0.07972  0.12935
E40   E   0.55096  0.92028  0.87065
E41   E   0.57972  0.05096  0.37065
E42   E   0.57972  0.94904  0.62935
E43   E   0.62935  0.42028  0.05096
E44   E   0.62935  0.57972  0.94904
E45   E   0.63068  0.13068  0.25000
E46   E   0.63068  0.13068  0.25000
E47   E   0.63068  0.25000  0.13068
E48   E   0.63068  0.25000  0.13068
E49   E   0.63068  0.75000  0.86932
E50   E   0.63068  0.86932  0.75000
E51   E   0.75000  0.13068  0.36932
E52   E   0.75000  0.13068  0.36932
E53   E   0.75000  0.36932  0.13068
E54   E   0.75000  0.36932  0.13068
E55   E   0.75000  0.63068  0.86932
E56   E   0.75000  0.86932  0.63068
E57   E   0.86932  0.25000  0.36932
E58   E   0.86932  0.36932  0.25000
E59   E   0.86932  0.63068  0.75000
E60   E   0.86932  0.75000  0.63068
E61   E   0.87065  0.44904  0.07972
E62   E   0.87065  0.55096  0.92028
E63   E   0.92028  0.12935  0.44904
E64   E   0.92028  0.87065  0.55096
E65   E   0.94904  0.37065  0.42028
E66   E   0.94904  0.62935  0.57972
loop_
