data_srs-f_I4132  hall_number: 510, V_con: 5
_audit_creation_date              2025-03-05
_audit_creation_method            'MOFbuilder_1.0'
_symmetry_space_group_name_H-M    'P1'
_symmetry_Int_Tables_number       1
_symmetry_cell_setting            triclinic
loop_
_symmetry_equiv_pos_as_xyz
  x,y,z
_cell_length_a                    56.5685
_cell_length_b                    56.5685
_cell_length_c                    56.5685
_cell_angle_alpha                 90.0
_cell_angle_beta                  90.0
_cell_angle_gamma                 90.0
loop_
_atom_site_label
_atom_site_type_symbol
_atom_site_fract_x
_atom_site_fract_y
_atom_site_fract_z
V1    V   0.00000  0.12500  0.12500
V2    V   0.00000  0.37500  0.12500
V3    V   0.00000  0.62500  0.37500
V4    V   0.00000  0.87500  0.37500
V5    V   0.12500  0.00000  0.12500
V6    V   0.12500  0.00000  0.37500
V7    V   0.12500  0.12500  0.00000
V8    V   0.12500  0.12500  0.25000
V9    V   0.12500  0.25000  0.12500
V10   V   0.12500  0.75000  0.37500
V11   V   0.12500  0.87500  0.25000
V12   V   0.12500  0.87500  0.50000
V13   V   0.25000  0.12500  0.12500
V14   V   0.25000  0.12500  0.87500
V15   V   0.25000  0.87500  0.37500
V16   V   0.25000  0.87500  0.62500
V17   V   0.37500  0.00000  0.62500
V18   V   0.37500  0.00000  0.87500
V19   V   0.37500  0.12500  0.00000
V20   V   0.37500  0.12500  0.75000
V21   V   0.37500  0.25000  0.87500
V22   V   0.37500  0.75000  0.62500
V23   V   0.37500  0.87500  0.50000
V24   V   0.37500  0.87500  0.75000
V25   V   0.50000  0.12500  0.87500
V26   V   0.50000  0.37500  0.87500
V27   V   0.50000  0.62500  0.62500
V28   V   0.50000  0.87500  0.62500
V29   V   0.62500  0.25000  0.87500
V30   V   0.62500  0.37500  0.00000
V31   V   0.62500  0.37500  0.75000
V32   V   0.62500  0.50000  0.62500
V33   V   0.62500  0.50000  0.87500
V34   V   0.62500  0.62500  0.50000
V35   V   0.62500  0.62500  0.75000
V36   V   0.62500  0.75000  0.62500
V37   V   0.75000  0.37500  0.12500
V38   V   0.75000  0.37500  0.87500
V39   V   0.75000  0.62500  0.37500
V40   V   0.75000  0.62500  0.62500
V41   V   0.87500  0.25000  0.12500
V42   V   0.87500  0.37500  0.00000
V43   V   0.87500  0.37500  0.25000
V44   V   0.87500  0.50000  0.12500
V45   V   0.87500  0.50000  0.37500
V46   V   0.87500  0.62500  0.25000
V47   V   0.87500  0.62500  0.50000
V48   V   0.87500  0.75000  0.37500
E1    E   0.06250  0.06250  0.12500
E2    E   0.06250  0.12500  0.06250
E3    E   0.06250  0.12500  0.18750
E4    E   0.06250  0.18750  0.12500
E5    E   0.06250  0.31250  0.12500
E6    E   0.06250  0.68750  0.37500
E7    E   0.06250  0.81250  0.37500
E8    E   0.06250  0.87500  0.31250
E9    E   0.06250  0.87500  0.43750
E10   E   0.06250  0.93750  0.37500
E11   E   0.12500  0.06250  0.06250
E12   E   0.12500  0.06250  0.18750
E13   E   0.12500  0.06250  0.31250
E14   E   0.12500  0.18750  0.06250
E15   E   0.12500  0.18750  0.18750
E16   E   0.12500  0.81250  0.31250
E17   E   0.12500  0.81250  0.43750
E18   E   0.12500  0.93750  0.18750
E19   E   0.12500  0.93750  0.31250
E20   E   0.12500  0.93750  0.43750
E21   E   0.18750  0.06250  0.12500
E22   E   0.18750  0.12500  0.06250
E23   E   0.18750  0.12500  0.18750
E24   E   0.18750  0.12500  0.93750
E25   E   0.18750  0.18750  0.12500
E26   E   0.18750  0.81250  0.37500
E27   E   0.18750  0.87500  0.31250
E28   E   0.18750  0.87500  0.43750
E29   E   0.18750  0.87500  0.56250
E30   E   0.18750  0.93750  0.37500
E31   E   0.31250  0.06250  0.87500
E32   E   0.31250  0.12500  0.06250
E33   E   0.31250  0.12500  0.81250
E34   E   0.31250  0.12500  0.93750
E35   E   0.31250  0.18750  0.87500
E36   E   0.31250  0.81250  0.62500
E37   E   0.31250  0.87500  0.43750
E38   E   0.31250  0.87500  0.56250
E39   E   0.31250  0.87500  0.68750
E40   E   0.31250  0.93750  0.62500
E41   E   0.37500  0.06250  0.68750
E42   E   0.37500  0.06250  0.81250
E43   E   0.37500  0.06250  0.93750
E44   E   0.37500  0.18750  0.81250
E45   E   0.37500  0.18750  0.93750
E46   E   0.37500  0.81250  0.56250
E47   E   0.37500  0.81250  0.68750
E48   E   0.37500  0.93750  0.56250
E49   E   0.37500  0.93750  0.68750
E50   E   0.37500  0.93750  0.81250
E51   E   0.43750  0.06250  0.87500
E52   E   0.43750  0.12500  0.81250
E53   E   0.43750  0.12500  0.93750
E54   E   0.43750  0.18750  0.87500
E55   E   0.43750  0.31250  0.87500
E56   E   0.43750  0.68750  0.62500
E57   E   0.43750  0.81250  0.62500
E58   E   0.43750  0.87500  0.56250
E59   E   0.43750  0.87500  0.68750
E60   E   0.43750  0.93750  0.62500
E61   E   0.56250  0.18750  0.87500
E62   E   0.56250  0.31250  0.87500
E63   E   0.56250  0.37500  0.81250
E64   E   0.56250  0.37500  0.93750
E65   E   0.56250  0.43750  0.87500
E66   E   0.56250  0.56250  0.62500
E67   E   0.56250  0.62500  0.56250
E68   E   0.56250  0.62500  0.68750
E69   E   0.56250  0.68750  0.62500
E70   E   0.56250  0.81250  0.62500
E71   E   0.62500  0.31250  0.81250
E72   E   0.62500  0.31250  0.93750
E73   E   0.62500  0.43750  0.68750
E74   E   0.62500  0.43750  0.81250
E75   E   0.62500  0.43750  0.93750
E76   E   0.62500  0.56250  0.56250
E77   E   0.62500  0.56250  0.68750
E78   E   0.62500  0.56250  0.81250
E79   E   0.62500  0.68750  0.56250
E80   E   0.62500  0.68750  0.68750
E81   E   0.68750  0.31250  0.87500
E82   E   0.68750  0.37500  0.06250
E83   E   0.68750  0.37500  0.81250
E84   E   0.68750  0.37500  0.93750
E85   E   0.68750  0.43750  0.87500
E86   E   0.68750  0.56250  0.62500
E87   E   0.68750  0.62500  0.43750
E88   E   0.68750  0.62500  0.56250
E89   E   0.68750  0.62500  0.68750
E90   E   0.68750  0.68750  0.62500
E91   E   0.81250  0.31250  0.12500
E92   E   0.81250  0.37500  0.06250
E93   E   0.81250  0.37500  0.18750
E94   E   0.81250  0.37500  0.93750
E95   E   0.81250  0.43750  0.12500
E96   E   0.81250  0.56250  0.37500
E97   E   0.81250  0.62500  0.31250
E98   E   0.81250  0.62500  0.43750
E99   E   0.81250  0.62500  0.56250
E100  E   0.81250  0.68750  0.37500
E101  E   0.87500  0.31250  0.06250
E102  E   0.87500  0.31250  0.18750
E103  E   0.87500  0.43750  0.06250
E104  E   0.87500  0.43750  0.18750
E105  E   0.87500  0.43750  0.31250
E106  E   0.87500  0.56250  0.18750
E107  E   0.87500  0.56250  0.31250
E108  E   0.87500  0.56250  0.43750
E109  E   0.87500  0.68750  0.31250
E110  E   0.87500  0.68750  0.43750
E111  E   0.93750  0.18750  0.12500
E112  E   0.93750  0.31250  0.12500
E113  E   0.93750  0.37500  0.06250
E114  E   0.93750  0.37500  0.18750
E115  E   0.93750  0.43750  0.12500
E116  E   0.93750  0.56250  0.37500
E117  E   0.93750  0.62500  0.31250
E118  E   0.93750  0.62500  0.43750
E119  E   0.93750  0.68750  0.37500
E120  E   0.93750  0.81250  0.37500
loop_
