data_srs-g_I4132  hall_number: 510, V_con: 5
_audit_creation_date              2025-03-05
_audit_creation_method            'MOFbuilder_1.0'
_symmetry_space_group_name_H-M    'P1'
_symmetry_Int_Tables_number       1
_symmetry_cell_setting            triclinic
loop_
_symmetry_equiv_pos_as_xyz
  x,y,z
_cell_length_a                    54.9508
_cell_length_b                    54.9508
_cell_length_c                    54.9508
_cell_angle_alpha                 90.0
_cell_angle_beta                  90.0
_cell_angle_gamma                 90.0
loop_
_atom_site_label
_atom_site_type_symbol
_atom_site_fract_x
_atom_site_fract_y
_atom_site_fract_z
V1    V   0.03921  0.03921  0.16789
V2    V   0.03921  0.16789  0.03921
V3    V   0.03921  0.83211  0.46079
V4    V   0.03921  0.96079  0.33211
V5    V   0.08211  0.21079  0.21079
V6    V   0.08211  0.78921  0.28921
V7    V   0.16789  0.03921  0.03921
V8    V   0.16789  0.96079  0.46079
V9    V   0.21079  0.08211  0.21079
V10   V   0.21079  0.21079  0.08211
V11   V   0.21079  0.78921  0.41789
V12   V   0.21079  0.91789  0.28921
V13   V   0.28921  0.08211  0.78921
V14   V   0.28921  0.21079  0.91789
V15   V   0.28921  0.78921  0.58211
V16   V   0.28921  0.91789  0.71079
V17   V   0.33211  0.03921  0.96079
V18   V   0.33211  0.96079  0.53921
V19   V   0.41789  0.21079  0.78921
V20   V   0.41789  0.78921  0.71079
V21   V   0.46079  0.03921  0.83211
V22   V   0.46079  0.16789  0.96079
V23   V   0.46079  0.83211  0.53921
V24   V   0.46079  0.96079  0.66789
V25   V   0.53921  0.33211  0.96079
V26   V   0.53921  0.46079  0.83211
V27   V   0.53921  0.53921  0.66789
V28   V   0.53921  0.66789  0.53921
V29   V   0.58211  0.28921  0.78921
V30   V   0.58211  0.71079  0.71079
V31   V   0.66789  0.46079  0.96079
V32   V   0.66789  0.53921  0.53921
V33   V   0.71079  0.28921  0.91789
V34   V   0.71079  0.41789  0.78921
V35   V   0.71079  0.58211  0.71079
V36   V   0.71079  0.71079  0.58211
V37   V   0.78921  0.28921  0.08211
V38   V   0.78921  0.41789  0.21079
V39   V   0.78921  0.58211  0.28921
V40   V   0.78921  0.71079  0.41789
V41   V   0.83211  0.46079  0.03921
V42   V   0.83211  0.53921  0.46079
V43   V   0.91789  0.28921  0.21079
V44   V   0.91789  0.71079  0.28921
V45   V   0.96079  0.33211  0.03921
V46   V   0.96079  0.46079  0.16789
V47   V   0.96079  0.53921  0.33211
V48   V   0.96079  0.66789  0.46079
E1    E   0.00000  0.25000  0.03921
E2    E   0.00000  0.25000  0.21079
E3    E   0.00000  0.75000  0.28921
E4    E   0.00000  0.75000  0.46079
E5    E   0.03921  0.00000  0.25000
E6    E   0.03921  0.10355  0.10355
E7    E   0.03921  0.89645  0.39645
E8    E   0.06066  0.12500  0.18934
E9    E   0.06066  0.18934  0.12500
E10   E   0.06066  0.81066  0.37500
E11   E   0.06066  0.87500  0.31066
E12   E   0.06066  0.12500  0.18934
E13   E   0.06066  0.18934  0.12500
E14   E   0.06066  0.81066  0.37500
E15   E   0.06066  0.87500  0.31066
E16   E   0.10355  0.03921  0.10355
E17   E   0.10355  0.10355  0.03921
E18   E   0.10355  0.89645  0.46079
E19   E   0.10355  0.96079  0.39645
E20   E   0.12500  0.06066  0.18934
E21   E   0.12500  0.06066  0.18934
E22   E   0.12500  0.18934  0.06066
E23   E   0.12500  0.18934  0.06066
E24   E   0.12500  0.81066  0.43934
E25   E   0.12500  0.81066  0.43934
E26   E   0.12500  0.93934  0.31066
E27   E   0.12500  0.93934  0.31066
E28   E   0.14645  0.14645  0.21079
E29   E   0.14645  0.21079  0.14645
E30   E   0.14645  0.78921  0.35355
E31   E   0.14645  0.85355  0.28921
E32   E   0.18934  0.06066  0.12500
E33   E   0.18934  0.06066  0.12500
E34   E   0.18934  0.12500  0.06066
E35   E   0.18934  0.12500  0.06066
E36   E   0.18934  0.87500  0.43934
E37   E   0.18934  0.93934  0.37500
E38   E   0.18934  0.93934  0.37500
E39   E   0.21079  0.00000  0.25000
E40   E   0.21079  0.14645  0.14645
E41   E   0.21079  0.85355  0.35355
E42   E   0.25000  0.03921  0.00000
E43   E   0.25000  0.21079  0.00000
E44   E   0.25000  0.78921  0.50000
E45   E   0.25000  0.96079  0.50000
E46   E   0.28921  0.00000  0.75000
E47   E   0.28921  0.14645  0.85355
E48   E   0.28921  0.85355  0.64645
E49   E   0.31066  0.06066  0.87500
E50   E   0.31066  0.06066  0.87500
E51   E   0.31066  0.12500  0.93934
E52   E   0.31066  0.12500  0.93934
E53   E   0.31066  0.87500  0.56066
E54   E   0.31066  0.87500  0.56066
E55   E   0.31066  0.93934  0.62500
E56   E   0.31066  0.93934  0.62500
E57   E   0.35355  0.14645  0.78921
E58   E   0.35355  0.21079  0.85355
E59   E   0.35355  0.78921  0.64645
E60   E   0.35355  0.85355  0.71079
E61   E   0.37500  0.06066  0.81066
E62   E   0.37500  0.06066  0.81066
E63   E   0.37500  0.18934  0.93934
E64   E   0.37500  0.18934  0.93934
E65   E   0.37500  0.81066  0.56066
E66   E   0.37500  0.81066  0.56066
E67   E   0.37500  0.93934  0.68934
E68   E   0.37500  0.93934  0.68934
E69   E   0.39645  0.03921  0.89645
E70   E   0.39645  0.10355  0.96079
E71   E   0.39645  0.89645  0.53921
E72   E   0.39645  0.96079  0.60355
E73   E   0.43934  0.12500  0.81066
E74   E   0.43934  0.12500  0.81066
E75   E   0.43934  0.18934  0.87500
E76   E   0.43934  0.81066  0.62500
E77   E   0.43934  0.81066  0.62500
E78   E   0.43934  0.87500  0.68934
E79   E   0.43934  0.87500  0.68934
E80   E   0.46079  0.00000  0.75000
E81   E   0.46079  0.10355  0.89645
E82   E   0.46079  0.89645  0.60355
E83   E   0.50000  0.25000  0.78921
E84   E   0.50000  0.25000  0.96079
E85   E   0.50000  0.75000  0.53921
E86   E   0.50000  0.75000  0.71079
E87   E   0.53921  0.39645  0.89645
E88   E   0.53921  0.50000  0.75000
E89   E   0.53921  0.60355  0.60355
E90   E   0.56066  0.31066  0.87500
E91   E   0.56066  0.37500  0.81066
E92   E   0.56066  0.62500  0.68934
E93   E   0.56066  0.68934  0.62500
E94   E   0.56066  0.31066  0.87500
E95   E   0.56066  0.37500  0.81066
E96   E   0.56066  0.62500  0.68934
E97   E   0.56066  0.68934  0.62500
E98   E   0.60355  0.39645  0.96079
E99   E   0.60355  0.46079  0.89645
E100  E   0.60355  0.53921  0.60355
E101  E   0.60355  0.60355  0.53921
E102  E   0.62500  0.31066  0.93934
E103  E   0.62500  0.31066  0.93934
E104  E   0.62500  0.43934  0.81066
E105  E   0.62500  0.43934  0.81066
E106  E   0.62500  0.56066  0.68934
E107  E   0.62500  0.56066  0.68934
E108  E   0.62500  0.68934  0.56066
E109  E   0.62500  0.68934  0.56066
E110  E   0.64645  0.28921  0.85355
E111  E   0.64645  0.35355  0.78921
E112  E   0.64645  0.64645  0.71079
E113  E   0.64645  0.71079  0.64645
E114  E   0.68934  0.37500  0.93934
E115  E   0.68934  0.43934  0.87500
E116  E   0.68934  0.56066  0.62500
E117  E   0.68934  0.62500  0.56066
E118  E   0.68934  0.37500  0.93934
E119  E   0.68934  0.43934  0.87500
E120  E   0.68934  0.56066  0.62500
E121  E   0.68934  0.62500  0.56066
E122  E   0.71079  0.35355  0.85355
E123  E   0.71079  0.50000  0.75000
E124  E   0.71079  0.64645  0.64645
E125  E   0.75000  0.28921  0.00000
E126  E   0.75000  0.46079  0.00000
E127  E   0.75000  0.53921  0.50000
E128  E   0.75000  0.71079  0.50000
E129  E   0.78921  0.35355  0.14645
E130  E   0.78921  0.50000  0.25000
E131  E   0.78921  0.64645  0.35355
E132  E   0.81066  0.37500  0.06066
E133  E   0.81066  0.43934  0.12500
E134  E   0.81066  0.56066  0.37500
E135  E   0.81066  0.62500  0.43934
E136  E   0.81066  0.37500  0.06066
E137  E   0.81066  0.43934  0.12500
E138  E   0.81066  0.56066  0.37500
E139  E   0.81066  0.62500  0.43934
E140  E   0.85355  0.28921  0.14645
E141  E   0.85355  0.35355  0.21079
E142  E   0.85355  0.64645  0.28921
E143  E   0.85355  0.71079  0.35355
E144  E   0.87500  0.31066  0.06066
E145  E   0.87500  0.31066  0.06066
E146  E   0.87500  0.43934  0.18934
E147  E   0.87500  0.56066  0.31066
E148  E   0.87500  0.56066  0.31066
E149  E   0.87500  0.68934  0.43934
E150  E   0.87500  0.68934  0.43934
E151  E   0.89645  0.39645  0.03921
E152  E   0.89645  0.46079  0.10355
E153  E   0.89645  0.53921  0.39645
E154  E   0.89645  0.60355  0.46079
E155  E   0.93934  0.31066  0.12500
E156  E   0.93934  0.37500  0.18934
E157  E   0.93934  0.62500  0.31066
E158  E   0.93934  0.68934  0.37500
E159  E   0.93934  0.31066  0.12500
E160  E   0.93934  0.37500  0.18934
E161  E   0.93934  0.62500  0.31066
E162  E   0.93934  0.68934  0.37500
E163  E   0.96079  0.39645  0.10355
E164  E   0.96079  0.50000  0.25000
E165  E   0.96079  0.60355  0.39645
loop_
