data_srs-a_I4132  hall_number: 510, V_con: 3
_audit_creation_date              2025-03-05
_audit_creation_method            'MOFbuilder_1.0'
_symmetry_space_group_name_H-M    'P1'
_symmetry_Int_Tables_number       1
_symmetry_cell_setting            triclinic
loop_
_symmetry_equiv_pos_as_xyz
  x,y,z
_cell_length_a                    60.9441
_cell_length_b                    60.9441
_cell_length_c                    60.9441
_cell_angle_alpha                 90.0
_cell_angle_beta                  90.0
_cell_angle_gamma                 90.0
loop_
_atom_site_label
_atom_site_type_symbol
_atom_site_fract_x
_atom_site_fract_y
_atom_site_fract_z
V1    V   0.05801  0.19199  0.12500
V2    V   0.05801  0.80801  0.37500
V3    V   0.05801  0.19199  0.12500
V4    V   0.05801  0.80801  0.37500
V5    V   0.12500  0.05801  0.19199
V6    V   0.12500  0.05801  0.19199
V7    V   0.12500  0.94199  0.30801
V8    V   0.19199  0.12500  0.05801
V9    V   0.19199  0.12500  0.05801
V10   V   0.19199  0.87500  0.44199
V11   V   0.30801  0.12500  0.94199
V12   V   0.30801  0.87500  0.55801
V13   V   0.37500  0.05801  0.80801
V14   V   0.37500  0.05801  0.80801
V15   V   0.37500  0.94199  0.69199
V16   V   0.44199  0.19199  0.87500
V17   V   0.44199  0.80801  0.62500
V18   V   0.55801  0.30801  0.87500
V19   V   0.55801  0.69199  0.62500
V20   V   0.62500  0.44199  0.80801
V21   V   0.62500  0.55801  0.69199
V22   V   0.69199  0.37500  0.94199
V23   V   0.69199  0.62500  0.55801
V24   V   0.80801  0.37500  0.05801
V25   V   0.80801  0.37500  0.05801
V26   V   0.80801  0.62500  0.44199
V27   V   0.87500  0.44199  0.19199
V28   V   0.87500  0.55801  0.30801
V29   V   0.94199  0.30801  0.12500
V30   V   0.94199  0.69199  0.37500
E1    E   0.00000  0.25000  0.12500
E2    E   0.00000  0.75000  0.37500
E3    E   0.09151  0.12500  0.15849
E4    E   0.09151  0.87500  0.34151
E5    E   0.09151  0.12500  0.15849
E6    E   0.09151  0.87500  0.34151
E7    E   0.12500  0.00000  0.25000
E8    E   0.12500  0.15849  0.09151
E9    E   0.12500  0.15849  0.09151
E10   E   0.12500  0.84151  0.40849
E11   E   0.15849  0.09151  0.12500
E12   E   0.15849  0.90849  0.37500
E13   E   0.15849  0.09151  0.12500
E14   E   0.15849  0.90849  0.37500
E15   E   0.25000  0.12500  0.00000
E16   E   0.25000  0.87500  0.50000
E17   E   0.34151  0.09151  0.87500
E18   E   0.34151  0.09151  0.87500
E19   E   0.34151  0.90849  0.62500
E20   E   0.37500  0.00000  0.75000
E21   E   0.37500  0.15849  0.90849
E22   E   0.37500  0.15849  0.90849
E23   E   0.37500  0.84151  0.59151
E24   E   0.40849  0.12500  0.84151
E25   E   0.40849  0.87500  0.65849
E26   E   0.50000  0.25000  0.87500
E27   E   0.50000  0.75000  0.62500
E28   E   0.59151  0.37500  0.84151
E29   E   0.59151  0.62500  0.65849
E30   E   0.62500  0.34151  0.90849
E31   E   0.62500  0.50000  0.75000
E32   E   0.62500  0.65849  0.59151
E33   E   0.65849  0.40849  0.87500
E34   E   0.65849  0.59151  0.62500
E35   E   0.75000  0.37500  0.00000
E36   E   0.75000  0.62500  0.50000
E37   E   0.84151  0.40849  0.12500
E38   E   0.84151  0.59151  0.37500
E39   E   0.87500  0.34151  0.09151
E40   E   0.87500  0.34151  0.09151
E41   E   0.87500  0.50000  0.25000
E42   E   0.87500  0.65849  0.40849
E43   E   0.90849  0.37500  0.15849
E44   E   0.90849  0.37500  0.15849
E45   E   0.90849  0.62500  0.34151
loop_
