data_ssc-a_I4132  hall_number: 510, V_con: 3, EC_con: 3
_audit_creation_date              2025-03-05
_audit_creation_method            'MOFbuilder_1.0'
_symmetry_space_group_name_H-M    'P1'
_symmetry_Int_Tables_number       1
_symmetry_cell_setting            triclinic
loop_
_symmetry_equiv_pos_as_xyz
  x,y,z
_cell_length_a                    47.3215
_cell_length_b                    47.3215
_cell_length_c                    47.3215
_cell_angle_alpha                 90.0
_cell_angle_beta                  90.0
_cell_angle_gamma                 90.0
loop_
_atom_site_label
_atom_site_type_symbol
_atom_site_fract_x
_atom_site_fract_y
_atom_site_fract_z
V1    V   0.02597  0.04397  0.34608
V2    V   0.02597  0.95603  0.15392
V3    V   0.04397  0.34608  0.02597
V4    V   0.04397  0.65392  0.47403
V5    V   0.09608  0.29397  0.22403
V6    V   0.09608  0.70603  0.27597
V7    V   0.15392  0.02597  0.95603
V8    V   0.15392  0.97403  0.54397
V9    V   0.20603  0.22403  0.90392
V10   V   0.20603  0.77597  0.59608
V11   V   0.22403  0.09608  0.29397
V12   V   0.22403  0.90392  0.20603
V13   V   0.27597  0.09608  0.70603
V14   V   0.27597  0.90392  0.79397
V15   V   0.29397  0.22403  0.09608
V16   V   0.29397  0.77597  0.40392
V17   V   0.34608  0.02597  0.04397
V18   V   0.34608  0.97403  0.45603
V19   V   0.40392  0.29397  0.77597
V20   V   0.40392  0.70603  0.72403
V21   V   0.45603  0.34608  0.97403
V22   V   0.45603  0.65392  0.52597
V23   V   0.47403  0.04397  0.65392
V24   V   0.47403  0.95603  0.84608
V25   V   0.52597  0.45603  0.65392
V26   V   0.52597  0.54397  0.84608
V27   V   0.54397  0.15392  0.97403
V28   V   0.54397  0.84608  0.52597
V29   V   0.59608  0.20603  0.77597
V30   V   0.59608  0.79397  0.72403
V31   V   0.65392  0.47403  0.04397
V32   V   0.65392  0.52597  0.45603
V33   V   0.70603  0.27597  0.09608
V34   V   0.70603  0.72403  0.40392
V35   V   0.72403  0.40392  0.70603
V36   V   0.72403  0.59608  0.79397
V37   V   0.77597  0.40392  0.29397
V38   V   0.77597  0.59608  0.20603
V39   V   0.79397  0.27597  0.90392
V40   V   0.79397  0.72403  0.59608
V41   V   0.84608  0.47403  0.95603
V42   V   0.84608  0.52597  0.54397
V43   V   0.90392  0.20603  0.22403
V44   V   0.90392  0.79397  0.27597
V45   V   0.95603  0.15392  0.02597
V46   V   0.95603  0.84608  0.47403
V47   V   0.97403  0.45603  0.34608
V48   V   0.97403  0.54397  0.15392
EC1    EC   0.02412  0.45088  0.84355
EC2    EC   0.02412  0.54912  0.65645
EC3    EC   0.04912  0.15645  0.52412
EC4    EC   0.04912  0.84355  0.97588
EC5    EC   0.09355  0.20088  0.72588
EC6    EC   0.09355  0.79912  0.77412
EC7    EC   0.15645  0.47588  0.45088
EC8    EC   0.15645  0.52412  0.04912
EC9    EC   0.20088  0.27412  0.40645
EC10   EC   0.20088  0.72588  0.09355
EC11   EC   0.22588  0.40645  0.79912
EC12   EC   0.22588  0.59355  0.70088
EC13   EC   0.27412  0.40645  0.20088
EC14   EC   0.27412  0.59355  0.29912
EC15   EC   0.29912  0.27412  0.59355
EC16   EC   0.29912  0.72588  0.90645
EC17   EC   0.34355  0.47588  0.54912
EC18   EC   0.34355  0.52412  0.95088
EC19   EC   0.40645  0.20088  0.27412
EC20   EC   0.40645  0.79912  0.22588
EC21   EC   0.45088  0.15645  0.47588
EC22   EC   0.45088  0.84355  0.02412
EC23   EC   0.47588  0.45088  0.15645
EC24   EC   0.47588  0.54912  0.34355
EC25   EC   0.52412  0.04912  0.15645
EC26   EC   0.52412  0.95088  0.34355
EC27   EC   0.54912  0.34355  0.47588
EC28   EC   0.54912  0.65645  0.02412
EC29   EC   0.59355  0.29912  0.27412
EC30   EC   0.59355  0.70088  0.22588
EC31   EC   0.65645  0.02412  0.54912
EC32   EC   0.65645  0.97588  0.95088
EC33   EC   0.70088  0.22588  0.59355
EC34   EC   0.70088  0.77412  0.90645
EC35   EC   0.72588  0.09355  0.20088
EC36   EC   0.72588  0.90645  0.29912
EC37   EC   0.77412  0.09355  0.79912
EC38   EC   0.77412  0.90645  0.70088
EC39   EC   0.79912  0.22588  0.40645
EC40   EC   0.79912  0.77412  0.09355
EC41   EC   0.84355  0.02412  0.45088
EC42   EC   0.84355  0.97588  0.04912
EC43   EC   0.90645  0.29912  0.72588
EC44   EC   0.90645  0.70088  0.77412
EC45   EC   0.95088  0.34355  0.52412
EC46   EC   0.95088  0.65645  0.97588
EC47   EC   0.97588  0.04912  0.84355
EC48   EC   0.97588  0.95088  0.65645
E1    E   0.00000  0.25000  0.02597
E2    E   0.00000  0.25000  0.22403
E3    E   0.00000  0.25000  0.52412
E4    E   0.00000  0.25000  0.72588
E5    E   0.00000  0.75000  0.27597
E6    E   0.00000  0.75000  0.47403
E7    E   0.00000  0.75000  0.77412
E8    E   0.00000  0.75000  0.97588
E9    E   0.02412  0.50000  0.75000
E10   E   0.02597  0.00000  0.25000
E11   E   0.03404  0.39848  0.93476
E12   E   0.03404  0.60152  0.56524
E13   E   0.06524  0.46596  0.39848
E14   E   0.06524  0.53404  0.10152
E15   E   0.07002  0.32002  0.12500
E16   E   0.07002  0.67998  0.37500
E17   E   0.07002  0.32002  0.12500
E18   E   0.07002  0.67998  0.37500
E19   E   0.07134  0.17866  0.62500
E20   E   0.07134  0.82134  0.87500
E21   E   0.07134  0.17866  0.62500
E22   E   0.07134  0.82134  0.87500
E23   E   0.10152  0.06524  0.53404
E24   E   0.10152  0.93476  0.96596
E25   E   0.12500  0.07002  0.32002
E26   E   0.12500  0.07002  0.32002
E27   E   0.12500  0.42866  0.82134
E28   E   0.12500  0.42866  0.82134
E29   E   0.12500  0.57134  0.67866
E30   E   0.12500  0.92998  0.17998
E31   E   0.12500  0.92998  0.17998
E32   E   0.14848  0.28404  0.31524
E33   E   0.14848  0.71596  0.18476
E34   E   0.17866  0.37500  0.42866
E35   E   0.17866  0.62500  0.07134
E36   E   0.17866  0.37500  0.42866
E37   E   0.17866  0.62500  0.07134
E38   E   0.17998  0.12500  0.92998
E39   E   0.17998  0.87500  0.57002
E40   E   0.17998  0.12500  0.92998
E41   E   0.17998  0.87500  0.57002
E42   E   0.18476  0.14848  0.71596
E43   E   0.18476  0.85152  0.78404
E44   E   0.21596  0.31524  0.85152
E45   E   0.21596  0.68476  0.64848
E46   E   0.22403  0.00000  0.25000
E47   E   0.22588  0.50000  0.75000
E48   E   0.25000  0.02597  0.00000
E49   E   0.25000  0.22403  0.00000
E50   E   0.25000  0.27412  0.50000
E51   E   0.25000  0.47588  0.50000
E52   E   0.25000  0.52412  0.00000
E53   E   0.25000  0.72588  0.00000
E54   E   0.25000  0.77597  0.50000
E55   E   0.25000  0.97403  0.50000
E56   E   0.27412  0.50000  0.25000
E57   E   0.27597  0.00000  0.75000
E58   E   0.28404  0.31524  0.14848
E59   E   0.28404  0.68476  0.35152
E60   E   0.31524  0.14848  0.28404
E61   E   0.31524  0.85152  0.21596
E62   E   0.32002  0.12500  0.07002
E63   E   0.32002  0.87500  0.42998
E64   E   0.32002  0.12500  0.07002
E65   E   0.32002  0.87500  0.42998
E66   E   0.32134  0.37500  0.57134
E67   E   0.32134  0.62500  0.92866
E68   E   0.32134  0.37500  0.57134
E69   E   0.32134  0.62500  0.92866
E70   E   0.35152  0.28404  0.68476
E71   E   0.35152  0.71596  0.81524
E72   E   0.37500  0.07002  0.67998
E73   E   0.37500  0.07002  0.67998
E74   E   0.37500  0.42866  0.17866
E75   E   0.37500  0.42866  0.17866
E76   E   0.37500  0.57134  0.32134
E77   E   0.37500  0.57134  0.32134
E78   E   0.37500  0.92998  0.82002
E79   E   0.39848  0.06524  0.46596
E80   E   0.39848  0.93476  0.03404
E81   E   0.42866  0.17866  0.37500
E82   E   0.42866  0.82134  0.12500
E83   E   0.42866  0.17866  0.37500
E84   E   0.42866  0.82134  0.12500
E85   E   0.42998  0.32002  0.87500
E86   E   0.42998  0.67998  0.62500
E87   E   0.42998  0.32002  0.87500
E88   E   0.42998  0.67998  0.62500
E89   E   0.43476  0.46596  0.60152
E90   E   0.43476  0.53404  0.89848
E91   E   0.46596  0.39848  0.06524
E92   E   0.46596  0.60152  0.43476
E93   E   0.47403  0.00000  0.75000
E94   E   0.47588  0.50000  0.25000
E95   E   0.50000  0.25000  0.27412
E96   E   0.50000  0.25000  0.47588
E97   E   0.50000  0.25000  0.77597
E98   E   0.50000  0.25000  0.97403
E99   E   0.50000  0.75000  0.02412
E100  E   0.50000  0.75000  0.22588
E101  E   0.50000  0.75000  0.52597
E102  E   0.50000  0.75000  0.72403
E103  E   0.52412  0.00000  0.25000
E104  E   0.52597  0.50000  0.75000
E105  E   0.53404  0.10152  0.06524
E106  E   0.53404  0.89848  0.43476
E107  E   0.56524  0.03404  0.60152
E108  E   0.56524  0.96596  0.89848
E109  E   0.57002  0.17998  0.87500
E110  E   0.57002  0.17998  0.87500
E111  E   0.57002  0.82002  0.62500
E112  E   0.57134  0.32134  0.37500
E113  E   0.57134  0.32134  0.37500
E114  E   0.57134  0.67866  0.12500
E115  E   0.60152  0.43476  0.46596
E116  E   0.60152  0.56524  0.03404
E117  E   0.62500  0.07134  0.17866
E118  E   0.62500  0.07134  0.17866
E119  E   0.62500  0.42998  0.67998
E120  E   0.62500  0.42998  0.67998
E121  E   0.62500  0.57002  0.82002
E122  E   0.62500  0.92866  0.32134
E123  E   0.62500  0.92866  0.32134
E124  E   0.64848  0.21596  0.68476
E125  E   0.64848  0.78404  0.81524
E126  E   0.67866  0.12500  0.57134
E127  E   0.67866  0.87500  0.92866
E128  E   0.67998  0.37500  0.07002
E129  E   0.67998  0.37500  0.07002
E130  E   0.67998  0.62500  0.42998
E131  E   0.67998  0.62500  0.42998
E132  E   0.68476  0.35152  0.28404
E133  E   0.68476  0.64848  0.21596
E134  E   0.71596  0.18476  0.14848
E135  E   0.71596  0.81524  0.35152
E136  E   0.72403  0.50000  0.75000
E137  E   0.72588  0.00000  0.25000
E138  E   0.75000  0.02412  0.50000
E139  E   0.75000  0.22588  0.50000
E140  E   0.75000  0.27597  0.00000
E141  E   0.75000  0.47403  0.00000
E142  E   0.75000  0.52597  0.50000
E143  E   0.75000  0.72403  0.50000
E144  E   0.75000  0.77412  0.00000
E145  E   0.75000  0.97588  0.00000
E146  E   0.77412  0.00000  0.75000
E147  E   0.77597  0.50000  0.25000
E148  E   0.78404  0.18476  0.85152
E149  E   0.78404  0.81524  0.64848
E150  E   0.81524  0.35152  0.71596
E151  E   0.81524  0.64848  0.78404
E152  E   0.82002  0.37500  0.92998
E153  E   0.82002  0.62500  0.57002
E154  E   0.82134  0.12500  0.42866
E155  E   0.82134  0.12500  0.42866
E156  E   0.82134  0.87500  0.07134
E157  E   0.82134  0.87500  0.07134
E158  E   0.85152  0.21596  0.31524
E159  E   0.85152  0.78404  0.18476
E160  E   0.87500  0.07134  0.82134
E161  E   0.87500  0.07134  0.82134
E162  E   0.87500  0.42998  0.32002
E163  E   0.87500  0.42998  0.32002
E164  E   0.87500  0.57002  0.17998
E165  E   0.87500  0.57002  0.17998
E166  E   0.87500  0.92866  0.67866
E167  E   0.89848  0.43476  0.53404
E168  E   0.89848  0.56524  0.96596
E169  E   0.92866  0.32134  0.62500
E170  E   0.92866  0.32134  0.62500
E171  E   0.92866  0.67866  0.87500
E172  E   0.92998  0.17998  0.12500
E173  E   0.92998  0.17998  0.12500
E174  E   0.92998  0.82002  0.37500
E175  E   0.93476  0.03404  0.39848
E176  E   0.93476  0.96596  0.10152
E177  E   0.96596  0.10152  0.93476
E178  E   0.96596  0.89848  0.56524
E179  E   0.97403  0.50000  0.25000
E180  E   0.97588  0.00000  0.75000
loop_
