data_ssm_I41/a:2  hall_number: 365, V_con: 6, EC_con: 4
_audit_creation_date              2025-03-05
_audit_creation_method            'MOFbuilder_1.0'
_symmetry_space_group_name_H-M    'P1'
_symmetry_Int_Tables_number       1
_symmetry_cell_setting            triclinic
loop_
_symmetry_equiv_pos_as_xyz
  x,y,z
_cell_length_a                    14.1423
_cell_length_b                    14.1423
_cell_length_c                    136.416
_cell_angle_alpha                 90.0
_cell_angle_beta                  90.0
_cell_angle_gamma                 90.0
loop_
_atom_site_label
_atom_site_type_symbol
_atom_site_fract_x
_atom_site_fract_y
_atom_site_fract_z
V1    V   0.25000  0.00000  0.22408
V2    V   0.25000  0.00000  0.47408
V3    V   0.25000  0.00000  0.72408
V4    V   0.25000  0.00000  0.97408
V5    V   0.25000  0.50000  0.02592
V6    V   0.25000  0.50000  0.27592
V7    V   0.25000  0.50000  0.52592
V8    V   0.25000  0.50000  0.77592
V9    V   0.75000  0.00000  0.02592
V10   V   0.75000  0.00000  0.27592
V11   V   0.75000  0.00000  0.52592
V12   V   0.75000  0.00000  0.77592
V13   V   0.75000  0.50000  0.22408
V14   V   0.75000  0.50000  0.47408
V15   V   0.75000  0.50000  0.72408
V16   V   0.75000  0.50000  0.97408
EC1    EC   0.21736  0.02884  0.40092
EC2    EC   0.21736  0.52884  0.59908
EC3    EC   0.22116  0.46736  0.84908
EC4    EC   0.22116  0.96736  0.15092
EC5    EC   0.27884  0.03264  0.65092
EC6    EC   0.27884  0.53264  0.34908
EC7    EC   0.28264  0.47116  0.09908
EC8    EC   0.28264  0.97116  0.90092
EC9    EC   0.71736  0.02884  0.09908
EC10   EC   0.71736  0.52884  0.90092
EC11   EC   0.72116  0.46736  0.65092
EC12   EC   0.72116  0.96736  0.34908
EC13   EC   0.77884  0.03264  0.84908
EC14   EC   0.77884  0.53264  0.15092
EC15   EC   0.78264  0.47116  0.40092
EC16   EC   0.78264  0.97116  0.59908
E1    E   0.00000  0.00000  0.00000
E2    E   0.00000  0.00000  0.25000
E3    E   0.00000  0.00000  0.75000
E4    E   0.00000  0.25000  0.02592
E5    E   0.00000  0.25000  0.22408
E6    E   0.00000  0.25000  0.27592
E7    E   0.00000  0.25000  0.59908
E8    E   0.00000  0.25000  0.65092
E9    E   0.00000  0.25000  0.97408
E10   E   0.00000  0.50000  0.00000
E11   E   0.00000  0.50000  0.25000
E12   E   0.00000  0.50000  0.75000
E13   E   0.00000  0.75000  0.02592
E14   E   0.00000  0.75000  0.34908
E15   E   0.00000  0.75000  0.40092
E16   E   0.00000  0.75000  0.72408
E17   E   0.00000  0.75000  0.77592
E18   E   0.00000  0.75000  0.97408
E19   E   0.03074  0.00190  0.62500
E20   E   0.03074  0.50190  0.37500
E21   E   0.23368  0.01442  0.43750
E22   E   0.23368  0.51442  0.56250
E23   E   0.23558  0.48368  0.81250
E24   E   0.23558  0.98368  0.18750
E25   E   0.24810  0.28074  0.62500
E26   E   0.24810  0.78074  0.37500
E27   E   0.25000  0.25000  0.00000
E28   E   0.25000  0.25000  0.25000
E29   E   0.25000  0.25000  0.50000
E30   E   0.25000  0.75000  0.00000
E31   E   0.25000  0.75000  0.50000
E32   E   0.25000  0.75000  0.75000
E33   E   0.25190  0.21926  0.87500
E34   E   0.25190  0.71926  0.12500
E35   E   0.26442  0.01632  0.68750
E36   E   0.26442  0.51632  0.31250
E37   E   0.26632  0.48558  0.06250
E38   E   0.26632  0.98558  0.93750
E39   E   0.46926  0.49810  0.87500
E40   E   0.46926  0.99810  0.12500
E41   E   0.50000  0.00000  0.25000
E42   E   0.50000  0.00000  0.50000
E43   E   0.50000  0.00000  0.75000
E44   E   0.50000  0.25000  0.22408
E45   E   0.50000  0.25000  0.27592
E46   E   0.50000  0.25000  0.47408
E47   E   0.50000  0.25000  0.52592
E48   E   0.50000  0.25000  0.84908
E49   E   0.50000  0.25000  0.90092
E50   E   0.50000  0.50000  0.25000
E51   E   0.50000  0.50000  0.50000
E52   E   0.50000  0.50000  0.75000
E53   E   0.50000  0.75000  0.09908
E54   E   0.50000  0.75000  0.15092
E55   E   0.50000  0.75000  0.47408
E56   E   0.50000  0.75000  0.52592
E57   E   0.50000  0.75000  0.72408
E58   E   0.50000  0.75000  0.77592
E59   E   0.53074  0.00190  0.87500
E60   E   0.53074  0.50190  0.12500
E61   E   0.73368  0.01442  0.06250
E62   E   0.73368  0.51442  0.93750
E63   E   0.73558  0.48368  0.68750
E64   E   0.73558  0.98368  0.31250
E65   E   0.74810  0.28074  0.87500
E66   E   0.74810  0.78074  0.12500
E67   E   0.75000  0.25000  0.00000
E68   E   0.75000  0.25000  0.25000
E69   E   0.75000  0.25000  0.50000
E70   E   0.75000  0.75000  0.00000
E71   E   0.75000  0.75000  0.50000
E72   E   0.75000  0.75000  0.75000
E73   E   0.75190  0.21926  0.62500
E74   E   0.75190  0.71926  0.37500
E75   E   0.76442  0.01632  0.81250
E76   E   0.76442  0.51632  0.18750
E77   E   0.76632  0.48558  0.43750
E78   E   0.76632  0.98558  0.56250
E79   E   0.96926  0.49810  0.62500
E80   E   0.96926  0.99810  0.37500
loop_
