data_sst-e_Im-3m  hall_number: 529, V_con: 4, EC_con: 4
_audit_creation_date              2025-03-05
_audit_creation_method            'MOFbuilder_1.0'
_symmetry_space_group_name_H-M    'P1'
_symmetry_Int_Tables_number       1
_symmetry_cell_setting            triclinic
loop_
_symmetry_equiv_pos_as_xyz
  x,y,z
_cell_length_a                    56.5685
_cell_length_b                    56.5685
_cell_length_c                    56.5685
_cell_angle_alpha                 90.0
_cell_angle_beta                  90.0
_cell_angle_gamma                 90.0
loop_
_atom_site_label
_atom_site_type_symbol
_atom_site_fract_x
_atom_site_fract_y
_atom_site_fract_z
V1    V   0.00000  0.12500  0.37500
V2    V   0.00000  0.12500  0.62500
V3    V   0.00000  0.37500  0.12500
V4    V   0.00000  0.37500  0.87500
V5    V   0.00000  0.62500  0.12500
V6    V   0.00000  0.62500  0.87500
V7    V   0.00000  0.87500  0.37500
V8    V   0.00000  0.87500  0.62500
V9    V   0.12500  0.00000  0.37500
V10   V   0.12500  0.00000  0.62500
V11   V   0.12500  0.37500  0.00000
V12   V   0.12500  0.37500  0.50000
V13   V   0.12500  0.50000  0.37500
V14   V   0.12500  0.50000  0.62500
V15   V   0.12500  0.62500  0.00000
V16   V   0.12500  0.62500  0.50000
V17   V   0.37500  0.00000  0.12500
V18   V   0.37500  0.00000  0.87500
V19   V   0.37500  0.12500  0.00000
V20   V   0.37500  0.12500  0.50000
V21   V   0.37500  0.50000  0.12500
V22   V   0.37500  0.50000  0.87500
V23   V   0.37500  0.87500  0.00000
V24   V   0.37500  0.87500  0.50000
V25   V   0.50000  0.12500  0.37500
V26   V   0.50000  0.12500  0.62500
V27   V   0.50000  0.37500  0.12500
V28   V   0.50000  0.37500  0.87500
V29   V   0.50000  0.62500  0.12500
V30   V   0.50000  0.62500  0.87500
V31   V   0.50000  0.87500  0.37500
V32   V   0.50000  0.87500  0.62500
V33   V   0.62500  0.00000  0.12500
V34   V   0.62500  0.00000  0.87500
V35   V   0.62500  0.12500  0.00000
V36   V   0.62500  0.12500  0.50000
V37   V   0.62500  0.50000  0.12500
V38   V   0.62500  0.50000  0.87500
V39   V   0.62500  0.87500  0.00000
V40   V   0.62500  0.87500  0.50000
V41   V   0.87500  0.00000  0.37500
V42   V   0.87500  0.00000  0.62500
V43   V   0.87500  0.37500  0.00000
V44   V   0.87500  0.37500  0.50000
V45   V   0.87500  0.50000  0.37500
V46   V   0.87500  0.50000  0.62500
V47   V   0.87500  0.62500  0.00000
V48   V   0.87500  0.62500  0.50000
EC1    EC   0.12500  0.25000  0.37500
EC2    EC   0.12500  0.25000  0.62500
EC3    EC   0.12500  0.37500  0.25000
EC4    EC   0.12500  0.37500  0.75000
EC5    EC   0.12500  0.62500  0.25000
EC6    EC   0.12500  0.62500  0.75000
EC7    EC   0.12500  0.75000  0.37500
EC8    EC   0.12500  0.75000  0.62500
EC9    EC   0.25000  0.12500  0.37500
EC10   EC   0.25000  0.12500  0.62500
EC11   EC   0.25000  0.37500  0.12500
EC12   EC   0.25000  0.37500  0.87500
EC13   EC   0.25000  0.62500  0.12500
EC14   EC   0.25000  0.62500  0.87500
EC15   EC   0.25000  0.87500  0.37500
EC16   EC   0.25000  0.87500  0.62500
EC17   EC   0.37500  0.12500  0.25000
EC18   EC   0.37500  0.12500  0.75000
EC19   EC   0.37500  0.25000  0.12500
EC20   EC   0.37500  0.25000  0.87500
EC21   EC   0.37500  0.75000  0.12500
EC22   EC   0.37500  0.75000  0.87500
EC23   EC   0.37500  0.87500  0.25000
EC24   EC   0.37500  0.87500  0.75000
EC25   EC   0.62500  0.12500  0.25000
EC26   EC   0.62500  0.12500  0.75000
EC27   EC   0.62500  0.25000  0.12500
EC28   EC   0.62500  0.25000  0.87500
EC29   EC   0.62500  0.75000  0.12500
EC30   EC   0.62500  0.75000  0.87500
EC31   EC   0.62500  0.87500  0.25000
EC32   EC   0.62500  0.87500  0.75000
EC33   EC   0.75000  0.12500  0.37500
EC34   EC   0.75000  0.12500  0.62500
EC35   EC   0.75000  0.37500  0.12500
EC36   EC   0.75000  0.37500  0.87500
EC37   EC   0.75000  0.62500  0.12500
EC38   EC   0.75000  0.62500  0.87500
EC39   EC   0.75000  0.87500  0.37500
EC40   EC   0.75000  0.87500  0.62500
EC41   EC   0.87500  0.25000  0.37500
EC42   EC   0.87500  0.25000  0.62500
EC43   EC   0.87500  0.37500  0.25000
EC44   EC   0.87500  0.37500  0.75000
EC45   EC   0.87500  0.62500  0.25000
EC46   EC   0.87500  0.62500  0.75000
EC47   EC   0.87500  0.75000  0.37500
EC48   EC   0.87500  0.75000  0.62500
E1    E   0.06250  0.06250  0.37500
E2    E   0.06250  0.06250  0.62500
E3    E   0.06250  0.18750  0.37500
E4    E   0.06250  0.18750  0.62500
E5    E   0.06250  0.37500  0.06250
E6    E   0.06250  0.37500  0.18750
E7    E   0.06250  0.37500  0.81250
E8    E   0.06250  0.37500  0.93750
E9    E   0.06250  0.62500  0.06250
E10   E   0.06250  0.62500  0.18750
E11   E   0.06250  0.62500  0.81250
E12   E   0.06250  0.62500  0.93750
E13   E   0.06250  0.81250  0.37500
E14   E   0.06250  0.81250  0.62500
E15   E   0.06250  0.93750  0.37500
E16   E   0.06250  0.93750  0.62500
E17   E   0.12500  0.31250  0.31250
E18   E   0.12500  0.31250  0.43750
E19   E   0.12500  0.31250  0.56250
E20   E   0.12500  0.31250  0.68750
E21   E   0.12500  0.43750  0.31250
E22   E   0.12500  0.43750  0.43750
E23   E   0.12500  0.43750  0.56250
E24   E   0.12500  0.43750  0.68750
E25   E   0.12500  0.56250  0.31250
E26   E   0.12500  0.56250  0.43750
E27   E   0.12500  0.56250  0.56250
E28   E   0.12500  0.56250  0.68750
E29   E   0.12500  0.68750  0.31250
E30   E   0.12500  0.68750  0.43750
E31   E   0.12500  0.68750  0.56250
E32   E   0.12500  0.68750  0.68750
E33   E   0.18750  0.06250  0.37500
E34   E   0.18750  0.06250  0.62500
E35   E   0.18750  0.18750  0.37500
E36   E   0.18750  0.18750  0.62500
E37   E   0.18750  0.37500  0.06250
E38   E   0.18750  0.37500  0.18750
E39   E   0.18750  0.37500  0.81250
E40   E   0.18750  0.37500  0.93750
E41   E   0.18750  0.62500  0.06250
E42   E   0.18750  0.62500  0.18750
E43   E   0.18750  0.62500  0.81250
E44   E   0.18750  0.62500  0.93750
E45   E   0.18750  0.81250  0.37500
E46   E   0.18750  0.81250  0.62500
E47   E   0.18750  0.93750  0.37500
E48   E   0.18750  0.93750  0.62500
E49   E   0.31250  0.12500  0.31250
E50   E   0.31250  0.12500  0.43750
E51   E   0.31250  0.12500  0.56250
E52   E   0.31250  0.12500  0.68750
E53   E   0.31250  0.31250  0.12500
E54   E   0.31250  0.31250  0.87500
E55   E   0.31250  0.43750  0.12500
E56   E   0.31250  0.43750  0.87500
E57   E   0.31250  0.56250  0.12500
E58   E   0.31250  0.56250  0.87500
E59   E   0.31250  0.68750  0.12500
E60   E   0.31250  0.68750  0.87500
E61   E   0.31250  0.87500  0.31250
E62   E   0.31250  0.87500  0.43750
E63   E   0.31250  0.87500  0.56250
E64   E   0.31250  0.87500  0.68750
E65   E   0.37500  0.06250  0.06250
E66   E   0.37500  0.06250  0.18750
E67   E   0.37500  0.06250  0.81250
E68   E   0.37500  0.06250  0.93750
E69   E   0.37500  0.18750  0.06250
E70   E   0.37500  0.18750  0.18750
E71   E   0.37500  0.18750  0.81250
E72   E   0.37500  0.18750  0.93750
E73   E   0.37500  0.81250  0.06250
E74   E   0.37500  0.81250  0.18750
E75   E   0.37500  0.81250  0.81250
E76   E   0.37500  0.81250  0.93750
E77   E   0.37500  0.93750  0.06250
E78   E   0.37500  0.93750  0.18750
E79   E   0.37500  0.93750  0.81250
E80   E   0.37500  0.93750  0.93750
E81   E   0.43750  0.12500  0.31250
E82   E   0.43750  0.12500  0.43750
E83   E   0.43750  0.12500  0.56250
E84   E   0.43750  0.12500  0.68750
E85   E   0.43750  0.31250  0.12500
E86   E   0.43750  0.31250  0.87500
E87   E   0.43750  0.43750  0.12500
E88   E   0.43750  0.43750  0.87500
E89   E   0.43750  0.56250  0.12500
E90   E   0.43750  0.56250  0.87500
E91   E   0.43750  0.68750  0.12500
E92   E   0.43750  0.68750  0.87500
E93   E   0.43750  0.87500  0.31250
E94   E   0.43750  0.87500  0.43750
E95   E   0.43750  0.87500  0.56250
E96   E   0.43750  0.87500  0.68750
E97   E   0.56250  0.12500  0.31250
E98   E   0.56250  0.12500  0.43750
E99   E   0.56250  0.12500  0.56250
E100  E   0.56250  0.12500  0.68750
E101  E   0.56250  0.31250  0.12500
E102  E   0.56250  0.31250  0.87500
E103  E   0.56250  0.43750  0.12500
E104  E   0.56250  0.43750  0.87500
E105  E   0.56250  0.56250  0.12500
E106  E   0.56250  0.56250  0.87500
E107  E   0.56250  0.68750  0.12500
E108  E   0.56250  0.68750  0.87500
E109  E   0.56250  0.87500  0.31250
E110  E   0.56250  0.87500  0.43750
E111  E   0.56250  0.87500  0.56250
E112  E   0.56250  0.87500  0.68750
E113  E   0.62500  0.06250  0.06250
E114  E   0.62500  0.06250  0.18750
E115  E   0.62500  0.06250  0.81250
E116  E   0.62500  0.06250  0.93750
E117  E   0.62500  0.18750  0.06250
E118  E   0.62500  0.18750  0.18750
E119  E   0.62500  0.18750  0.81250
E120  E   0.62500  0.18750  0.93750
E121  E   0.62500  0.81250  0.06250
E122  E   0.62500  0.81250  0.18750
E123  E   0.62500  0.81250  0.81250
E124  E   0.62500  0.81250  0.93750
E125  E   0.62500  0.93750  0.06250
E126  E   0.62500  0.93750  0.18750
E127  E   0.62500  0.93750  0.81250
E128  E   0.62500  0.93750  0.93750
E129  E   0.68750  0.12500  0.31250
E130  E   0.68750  0.12500  0.43750
E131  E   0.68750  0.12500  0.56250
E132  E   0.68750  0.12500  0.68750
E133  E   0.68750  0.31250  0.12500
E134  E   0.68750  0.31250  0.87500
E135  E   0.68750  0.43750  0.12500
E136  E   0.68750  0.43750  0.87500
E137  E   0.68750  0.56250  0.12500
E138  E   0.68750  0.56250  0.87500
E139  E   0.68750  0.68750  0.12500
E140  E   0.68750  0.68750  0.87500
E141  E   0.68750  0.87500  0.31250
E142  E   0.68750  0.87500  0.43750
E143  E   0.68750  0.87500  0.56250
E144  E   0.68750  0.87500  0.68750
E145  E   0.81250  0.06250  0.37500
E146  E   0.81250  0.06250  0.62500
E147  E   0.81250  0.18750  0.37500
E148  E   0.81250  0.18750  0.62500
E149  E   0.81250  0.37500  0.06250
E150  E   0.81250  0.37500  0.18750
E151  E   0.81250  0.37500  0.81250
E152  E   0.81250  0.37500  0.93750
E153  E   0.81250  0.62500  0.06250
E154  E   0.81250  0.62500  0.18750
E155  E   0.81250  0.62500  0.81250
E156  E   0.81250  0.62500  0.93750
E157  E   0.81250  0.81250  0.37500
E158  E   0.81250  0.81250  0.62500
E159  E   0.81250  0.93750  0.37500
E160  E   0.81250  0.93750  0.62500
E161  E   0.87500  0.31250  0.31250
E162  E   0.87500  0.31250  0.43750
E163  E   0.87500  0.31250  0.56250
E164  E   0.87500  0.31250  0.68750
E165  E   0.87500  0.43750  0.31250
E166  E   0.87500  0.43750  0.43750
E167  E   0.87500  0.43750  0.56250
E168  E   0.87500  0.43750  0.68750
E169  E   0.87500  0.56250  0.31250
E170  E   0.87500  0.56250  0.43750
E171  E   0.87500  0.56250  0.56250
E172  E   0.87500  0.56250  0.68750
E173  E   0.87500  0.68750  0.31250
E174  E   0.87500  0.68750  0.43750
E175  E   0.87500  0.68750  0.56250
E176  E   0.87500  0.68750  0.68750
E177  E   0.93750  0.06250  0.37500
E178  E   0.93750  0.06250  0.62500
E179  E   0.93750  0.18750  0.37500
E180  E   0.93750  0.18750  0.62500
E181  E   0.93750  0.37500  0.06250
E182  E   0.93750  0.37500  0.18750
E183  E   0.93750  0.37500  0.81250
E184  E   0.93750  0.37500  0.93750
E185  E   0.93750  0.62500  0.06250
E186  E   0.93750  0.62500  0.18750
E187  E   0.93750  0.62500  0.81250
E188  E   0.93750  0.62500  0.93750
E189  E   0.93750  0.81250  0.37500
E190  E   0.93750  0.81250  0.62500
E191  E   0.93750  0.93750  0.37500
E192  E   0.93750  0.93750  0.62500
loop_
