data_svt_Fm-3c  hall_number: 524, V_con: 7
_audit_creation_date              2025-03-05
_audit_creation_method            'MOFbuilder_1.0'
_symmetry_space_group_name_H-M    'P1'
_symmetry_Int_Tables_number       1
_symmetry_cell_setting            triclinic
loop_
_symmetry_equiv_pos_as_xyz
  x,y,z
_cell_length_a                    46.5026
_cell_length_b                    46.5026
_cell_length_c                    46.5026
_cell_angle_alpha                 90.0
_cell_angle_beta                  90.0
_cell_angle_gamma                 90.0
loop_
_atom_site_label
_atom_site_type_symbol
_atom_site_fract_x
_atom_site_fract_y
_atom_site_fract_z
V1    V   0.00000  0.10752  0.32603
V2    V   0.00000  0.10752  0.67397
V3    V   0.00000  0.17397  0.10752
V4    V   0.00000  0.17397  0.89248
V5    V   0.00000  0.32603  0.39248
V6    V   0.00000  0.32603  0.60752
V7    V   0.00000  0.39248  0.17397
V8    V   0.00000  0.39248  0.82603
V9    V   0.00000  0.60752  0.17397
V10   V   0.00000  0.60752  0.82603
V11   V   0.00000  0.67397  0.39248
V12   V   0.00000  0.67397  0.60752
V13   V   0.00000  0.82603  0.10752
V14   V   0.00000  0.82603  0.89248
V15   V   0.00000  0.89248  0.32603
V16   V   0.00000  0.89248  0.67397
V17   V   0.10752  0.00000  0.17397
V18   V   0.10752  0.00000  0.82603
V19   V   0.10752  0.17397  0.50000
V20   V   0.10752  0.32603  0.00000
V21   V   0.10752  0.50000  0.32603
V22   V   0.10752  0.50000  0.67397
V23   V   0.10752  0.67397  0.00000
V24   V   0.10752  0.82603  0.50000
V25   V   0.17397  0.00000  0.39248
V26   V   0.17397  0.00000  0.60752
V27   V   0.17397  0.10752  0.00000
V28   V   0.17397  0.39248  0.50000
V29   V   0.17397  0.50000  0.10752
V30   V   0.17397  0.50000  0.89248
V31   V   0.17397  0.60752  0.50000
V32   V   0.17397  0.89248  0.00000
V33   V   0.32603  0.00000  0.10752
V34   V   0.32603  0.00000  0.89248
V35   V   0.32603  0.10752  0.50000
V36   V   0.32603  0.39248  0.00000
V37   V   0.32603  0.50000  0.39248
V38   V   0.32603  0.50000  0.60752
V39   V   0.32603  0.60752  0.00000
V40   V   0.32603  0.89248  0.50000
V41   V   0.39248  0.00000  0.32603
V42   V   0.39248  0.00000  0.67397
V43   V   0.39248  0.17397  0.00000
V44   V   0.39248  0.32603  0.50000
V45   V   0.39248  0.50000  0.17397
V46   V   0.39248  0.50000  0.82603
V47   V   0.39248  0.67397  0.50000
V48   V   0.39248  0.82603  0.00000
V49   V   0.50000  0.10752  0.17397
V50   V   0.50000  0.10752  0.82603
V51   V   0.50000  0.17397  0.39248
V52   V   0.50000  0.17397  0.60752
V53   V   0.50000  0.32603  0.10752
V54   V   0.50000  0.32603  0.89248
V55   V   0.50000  0.39248  0.32603
V56   V   0.50000  0.39248  0.67397
V57   V   0.50000  0.60752  0.32603
V58   V   0.50000  0.60752  0.67397
V59   V   0.50000  0.67397  0.10752
V60   V   0.50000  0.67397  0.89248
V61   V   0.50000  0.82603  0.39248
V62   V   0.50000  0.82603  0.60752
V63   V   0.50000  0.89248  0.17397
V64   V   0.50000  0.89248  0.82603
V65   V   0.60752  0.00000  0.32603
V66   V   0.60752  0.00000  0.67397
V67   V   0.60752  0.17397  0.00000
V68   V   0.60752  0.32603  0.50000
V69   V   0.60752  0.50000  0.17397
V70   V   0.60752  0.50000  0.82603
V71   V   0.60752  0.67397  0.50000
V72   V   0.60752  0.82603  0.00000
V73   V   0.67397  0.00000  0.10752
V74   V   0.67397  0.00000  0.89248
V75   V   0.67397  0.10752  0.50000
V76   V   0.67397  0.39248  0.00000
V77   V   0.67397  0.50000  0.39248
V78   V   0.67397  0.50000  0.60752
V79   V   0.67397  0.60752  0.00000
V80   V   0.67397  0.89248  0.50000
V81   V   0.82603  0.00000  0.39248
V82   V   0.82603  0.00000  0.60752
V83   V   0.82603  0.10752  0.00000
V84   V   0.82603  0.39248  0.50000
V85   V   0.82603  0.50000  0.10752
V86   V   0.82603  0.50000  0.89248
V87   V   0.82603  0.60752  0.50000
V88   V   0.82603  0.89248  0.00000
V89   V   0.89248  0.00000  0.17397
V90   V   0.89248  0.00000  0.82603
V91   V   0.89248  0.17397  0.50000
V92   V   0.89248  0.32603  0.00000
V93   V   0.89248  0.50000  0.32603
V94   V   0.89248  0.50000  0.67397
V95   V   0.89248  0.67397  0.00000
V96   V   0.89248  0.82603  0.50000
E1    E   0.00000  0.00000  0.17397
E2    E   0.00000  0.00000  0.32603
E3    E   0.00000  0.00000  0.67397
E4    E   0.00000  0.00000  0.82603
E5    E   0.00000  0.17397  0.00000
E6    E   0.00000  0.17397  0.50000
E7    E   0.00000  0.32603  0.00000
E8    E   0.00000  0.32603  0.50000
E9    E   0.00000  0.50000  0.17397
E10   E   0.00000  0.50000  0.32603
E11   E   0.00000  0.50000  0.67397
E12   E   0.00000  0.50000  0.82603
E13   E   0.00000  0.67397  0.00000
E14   E   0.00000  0.67397  0.50000
E15   E   0.00000  0.82603  0.00000
E16   E   0.00000  0.82603  0.50000
E17   E   0.05376  0.05376  0.25000
E18   E   0.05376  0.05376  0.75000
E19   E   0.05376  0.08699  0.14075
E20   E   0.05376  0.08699  0.85925
E21   E   0.05376  0.14075  0.41301
E22   E   0.05376  0.14075  0.58699
E23   E   0.05376  0.25000  0.05376
E24   E   0.05376  0.25000  0.44624
E25   E   0.05376  0.25000  0.55376
E26   E   0.05376  0.25000  0.94624
E27   E   0.05376  0.35925  0.08699
E28   E   0.05376  0.35925  0.91301
E29   E   0.05376  0.41301  0.35925
E30   E   0.05376  0.41301  0.64075
E31   E   0.05376  0.44624  0.25000
E32   E   0.05376  0.44624  0.75000
E33   E   0.05376  0.55376  0.25000
E34   E   0.05376  0.55376  0.75000
E35   E   0.05376  0.58699  0.35925
E36   E   0.05376  0.58699  0.64075
E37   E   0.05376  0.64075  0.08699
E38   E   0.05376  0.64075  0.91301
E39   E   0.05376  0.75000  0.05376
E40   E   0.05376  0.75000  0.44624
E41   E   0.05376  0.75000  0.55376
E42   E   0.05376  0.75000  0.94624
E43   E   0.05376  0.85925  0.41301
E44   E   0.05376  0.85925  0.58699
E45   E   0.05376  0.91301  0.14075
E46   E   0.05376  0.91301  0.85925
E47   E   0.05376  0.94624  0.25000
E48   E   0.05376  0.94624  0.75000
E49   E   0.08699  0.05376  0.35925
E50   E   0.08699  0.05376  0.64075
E51   E   0.08699  0.14075  0.05376
E52   E   0.08699  0.14075  0.94624
E53   E   0.08699  0.35925  0.44624
E54   E   0.08699  0.35925  0.55376
E55   E   0.08699  0.44624  0.14075
E56   E   0.08699  0.44624  0.85925
E57   E   0.08699  0.55376  0.14075
E58   E   0.08699  0.55376  0.85925
E59   E   0.08699  0.64075  0.44624
E60   E   0.08699  0.64075  0.55376
E61   E   0.08699  0.85925  0.05376
E62   E   0.08699  0.85925  0.94624
E63   E   0.08699  0.94624  0.35925
E64   E   0.08699  0.94624  0.64075
E65   E   0.14075  0.05376  0.08699
E66   E   0.14075  0.05376  0.91301
E67   E   0.14075  0.08699  0.44624
E68   E   0.14075  0.08699  0.55376
E69   E   0.14075  0.41301  0.05376
E70   E   0.14075  0.41301  0.94624
E71   E   0.14075  0.44624  0.41301
E72   E   0.14075  0.44624  0.58699
E73   E   0.14075  0.55376  0.41301
E74   E   0.14075  0.55376  0.58699
E75   E   0.14075  0.58699  0.05376
E76   E   0.14075  0.58699  0.94624
E77   E   0.14075  0.91301  0.44624
E78   E   0.14075  0.91301  0.55376
E79   E   0.14075  0.94624  0.08699
E80   E   0.14075  0.94624  0.91301
E81   E   0.17397  0.00000  0.00000
E82   E   0.17397  0.00000  0.50000
E83   E   0.17397  0.50000  0.00000
E84   E   0.17397  0.50000  0.50000
E85   E   0.25000  0.05376  0.05376
E86   E   0.25000  0.05376  0.44624
E87   E   0.25000  0.05376  0.55376
E88   E   0.25000  0.05376  0.94624
E89   E   0.25000  0.44624  0.05376
E90   E   0.25000  0.44624  0.44624
E91   E   0.25000  0.44624  0.55376
E92   E   0.25000  0.44624  0.94624
E93   E   0.25000  0.55376  0.05376
E94   E   0.25000  0.55376  0.44624
E95   E   0.25000  0.55376  0.55376
E96   E   0.25000  0.55376  0.94624
E97   E   0.25000  0.94624  0.05376
E98   E   0.25000  0.94624  0.44624
E99   E   0.25000  0.94624  0.55376
E100  E   0.25000  0.94624  0.94624
E101  E   0.32603  0.00000  0.00000
E102  E   0.32603  0.00000  0.50000
E103  E   0.32603  0.50000  0.00000
E104  E   0.32603  0.50000  0.50000
E105  E   0.35925  0.05376  0.41301
E106  E   0.35925  0.05376  0.58699
E107  E   0.35925  0.08699  0.05376
E108  E   0.35925  0.08699  0.94624
E109  E   0.35925  0.41301  0.44624
E110  E   0.35925  0.41301  0.55376
E111  E   0.35925  0.44624  0.08699
E112  E   0.35925  0.44624  0.91301
E113  E   0.35925  0.55376  0.08699
E114  E   0.35925  0.55376  0.91301
E115  E   0.35925  0.58699  0.44624
E116  E   0.35925  0.58699  0.55376
E117  E   0.35925  0.91301  0.05376
E118  E   0.35925  0.91301  0.94624
E119  E   0.35925  0.94624  0.41301
E120  E   0.35925  0.94624  0.58699
E121  E   0.41301  0.05376  0.14075
E122  E   0.41301  0.05376  0.85925
E123  E   0.41301  0.14075  0.44624
E124  E   0.41301  0.14075  0.55376
E125  E   0.41301  0.35925  0.05376
E126  E   0.41301  0.35925  0.94624
E127  E   0.41301  0.44624  0.35925
E128  E   0.41301  0.44624  0.64075
E129  E   0.41301  0.55376  0.35925
E130  E   0.41301  0.55376  0.64075
E131  E   0.41301  0.64075  0.05376
E132  E   0.41301  0.64075  0.94624
E133  E   0.41301  0.85925  0.44624
E134  E   0.41301  0.85925  0.55376
E135  E   0.41301  0.94624  0.14075
E136  E   0.41301  0.94624  0.85925
E137  E   0.44624  0.05376  0.25000
E138  E   0.44624  0.05376  0.75000
E139  E   0.44624  0.08699  0.35925
E140  E   0.44624  0.08699  0.64075
E141  E   0.44624  0.14075  0.08699
E142  E   0.44624  0.14075  0.91301
E143  E   0.44624  0.25000  0.05376
E144  E   0.44624  0.25000  0.44624
E145  E   0.44624  0.25000  0.55376
E146  E   0.44624  0.25000  0.94624
E147  E   0.44624  0.35925  0.41301
E148  E   0.44624  0.35925  0.58699
E149  E   0.44624  0.41301  0.14075
E150  E   0.44624  0.41301  0.85925
E151  E   0.44624  0.44624  0.25000
E152  E   0.44624  0.44624  0.75000
E153  E   0.44624  0.55376  0.25000
E154  E   0.44624  0.55376  0.75000
E155  E   0.44624  0.58699  0.14075
E156  E   0.44624  0.58699  0.85925
E157  E   0.44624  0.64075  0.41301
E158  E   0.44624  0.64075  0.58699
E159  E   0.44624  0.75000  0.05376
E160  E   0.44624  0.75000  0.44624
E161  E   0.44624  0.75000  0.55376
E162  E   0.44624  0.75000  0.94624
E163  E   0.44624  0.85925  0.08699
E164  E   0.44624  0.85925  0.91301
E165  E   0.44624  0.91301  0.35925
E166  E   0.44624  0.91301  0.64075
E167  E   0.44624  0.94624  0.25000
E168  E   0.44624  0.94624  0.75000
E169  E   0.50000  0.00000  0.17397
E170  E   0.50000  0.00000  0.32603
E171  E   0.50000  0.00000  0.67397
E172  E   0.50000  0.00000  0.82603
E173  E   0.50000  0.17397  0.00000
E174  E   0.50000  0.17397  0.50000
E175  E   0.50000  0.32603  0.00000
E176  E   0.50000  0.32603  0.50000
E177  E   0.50000  0.50000  0.17397
E178  E   0.50000  0.50000  0.32603
E179  E   0.50000  0.50000  0.67397
E180  E   0.50000  0.50000  0.82603
E181  E   0.50000  0.67397  0.00000
E182  E   0.50000  0.67397  0.50000
E183  E   0.50000  0.82603  0.00000
E184  E   0.50000  0.82603  0.50000
E185  E   0.55376  0.05376  0.25000
E186  E   0.55376  0.05376  0.75000
E187  E   0.55376  0.08699  0.35925
E188  E   0.55376  0.08699  0.64075
E189  E   0.55376  0.14075  0.08699
E190  E   0.55376  0.14075  0.91301
E191  E   0.55376  0.25000  0.05376
E192  E   0.55376  0.25000  0.44624
E193  E   0.55376  0.25000  0.55376
E194  E   0.55376  0.25000  0.94624
E195  E   0.55376  0.35925  0.41301
E196  E   0.55376  0.35925  0.58699
E197  E   0.55376  0.41301  0.14075
E198  E   0.55376  0.41301  0.85925
E199  E   0.55376  0.44624  0.25000
E200  E   0.55376  0.44624  0.75000
E201  E   0.55376  0.55376  0.25000
E202  E   0.55376  0.55376  0.75000
E203  E   0.55376  0.58699  0.14075
E204  E   0.55376  0.58699  0.85925
E205  E   0.55376  0.64075  0.41301
E206  E   0.55376  0.64075  0.58699
E207  E   0.55376  0.75000  0.05376
E208  E   0.55376  0.75000  0.44624
E209  E   0.55376  0.75000  0.55376
E210  E   0.55376  0.75000  0.94624
E211  E   0.55376  0.85925  0.08699
E212  E   0.55376  0.85925  0.91301
E213  E   0.55376  0.91301  0.35925
E214  E   0.55376  0.91301  0.64075
E215  E   0.55376  0.94624  0.25000
E216  E   0.55376  0.94624  0.75000
E217  E   0.58699  0.05376  0.14075
E218  E   0.58699  0.05376  0.85925
E219  E   0.58699  0.14075  0.44624
E220  E   0.58699  0.14075  0.55376
E221  E   0.58699  0.35925  0.05376
E222  E   0.58699  0.35925  0.94624
E223  E   0.58699  0.44624  0.35925
E224  E   0.58699  0.44624  0.64075
E225  E   0.58699  0.55376  0.35925
E226  E   0.58699  0.55376  0.64075
E227  E   0.58699  0.64075  0.05376
E228  E   0.58699  0.64075  0.94624
E229  E   0.58699  0.85925  0.44624
E230  E   0.58699  0.85925  0.55376
E231  E   0.58699  0.94624  0.14075
E232  E   0.58699  0.94624  0.85925
E233  E   0.64075  0.05376  0.41301
E234  E   0.64075  0.05376  0.58699
E235  E   0.64075  0.08699  0.05376
E236  E   0.64075  0.08699  0.94624
E237  E   0.64075  0.41301  0.44624
E238  E   0.64075  0.41301  0.55376
E239  E   0.64075  0.44624  0.08699
E240  E   0.64075  0.44624  0.91301
E241  E   0.64075  0.55376  0.08699
E242  E   0.64075  0.55376  0.91301
E243  E   0.64075  0.58699  0.44624
E244  E   0.64075  0.58699  0.55376
E245  E   0.64075  0.91301  0.05376
E246  E   0.64075  0.91301  0.94624
E247  E   0.64075  0.94624  0.41301
E248  E   0.64075  0.94624  0.58699
E249  E   0.67397  0.00000  0.00000
E250  E   0.67397  0.00000  0.50000
E251  E   0.67397  0.50000  0.00000
E252  E   0.67397  0.50000  0.50000
E253  E   0.75000  0.05376  0.05376
E254  E   0.75000  0.05376  0.44624
E255  E   0.75000  0.05376  0.55376
E256  E   0.75000  0.05376  0.94624
E257  E   0.75000  0.44624  0.05376
E258  E   0.75000  0.44624  0.44624
E259  E   0.75000  0.44624  0.55376
E260  E   0.75000  0.44624  0.94624
E261  E   0.75000  0.55376  0.05376
E262  E   0.75000  0.55376  0.44624
E263  E   0.75000  0.55376  0.55376
E264  E   0.75000  0.55376  0.94624
E265  E   0.75000  0.94624  0.05376
E266  E   0.75000  0.94624  0.44624
E267  E   0.75000  0.94624  0.55376
E268  E   0.75000  0.94624  0.94624
E269  E   0.82603  0.00000  0.00000
E270  E   0.82603  0.00000  0.50000
E271  E   0.82603  0.50000  0.00000
E272  E   0.82603  0.50000  0.50000
E273  E   0.85925  0.05376  0.08699
E274  E   0.85925  0.05376  0.91301
E275  E   0.85925  0.08699  0.44624
E276  E   0.85925  0.08699  0.55376
E277  E   0.85925  0.41301  0.05376
E278  E   0.85925  0.41301  0.94624
E279  E   0.85925  0.44624  0.41301
E280  E   0.85925  0.44624  0.58699
E281  E   0.85925  0.55376  0.41301
E282  E   0.85925  0.55376  0.58699
E283  E   0.85925  0.58699  0.05376
E284  E   0.85925  0.58699  0.94624
E285  E   0.85925  0.91301  0.44624
E286  E   0.85925  0.91301  0.55376
E287  E   0.85925  0.94624  0.08699
E288  E   0.85925  0.94624  0.91301
E289  E   0.91301  0.05376  0.35925
E290  E   0.91301  0.05376  0.64075
E291  E   0.91301  0.14075  0.05376
E292  E   0.91301  0.14075  0.94624
E293  E   0.91301  0.35925  0.44624
E294  E   0.91301  0.35925  0.55376
E295  E   0.91301  0.44624  0.14075
E296  E   0.91301  0.44624  0.85925
E297  E   0.91301  0.55376  0.14075
E298  E   0.91301  0.55376  0.85925
E299  E   0.91301  0.64075  0.44624
E300  E   0.91301  0.64075  0.55376
E301  E   0.91301  0.85925  0.05376
E302  E   0.91301  0.85925  0.94624
E303  E   0.91301  0.94624  0.35925
E304  E   0.91301  0.94624  0.64075
E305  E   0.94624  0.05376  0.25000
E306  E   0.94624  0.05376  0.75000
E307  E   0.94624  0.08699  0.14075
E308  E   0.94624  0.08699  0.85925
E309  E   0.94624  0.14075  0.41301
E310  E   0.94624  0.14075  0.58699
E311  E   0.94624  0.25000  0.05376
E312  E   0.94624  0.25000  0.44624
E313  E   0.94624  0.25000  0.55376
E314  E   0.94624  0.25000  0.94624
E315  E   0.94624  0.35925  0.08699
E316  E   0.94624  0.35925  0.91301
E317  E   0.94624  0.41301  0.35925
E318  E   0.94624  0.41301  0.64075
E319  E   0.94624  0.44624  0.25000
E320  E   0.94624  0.44624  0.75000
E321  E   0.94624  0.55376  0.25000
E322  E   0.94624  0.55376  0.75000
E323  E   0.94624  0.58699  0.35925
E324  E   0.94624  0.58699  0.64075
E325  E   0.94624  0.64075  0.08699
E326  E   0.94624  0.64075  0.91301
E327  E   0.94624  0.75000  0.05376
E328  E   0.94624  0.75000  0.44624
E329  E   0.94624  0.75000  0.55376
E330  E   0.94624  0.75000  0.94624
E331  E   0.94624  0.85925  0.41301
E332  E   0.94624  0.85925  0.58699
E333  E   0.94624  0.91301  0.14075
E334  E   0.94624  0.91301  0.85925
E335  E   0.94624  0.94624  0.25000
E336  E   0.94624  0.94624  0.75000
loop_
