data_svv_Ia-3  hall_number: 502, V_con: 7
_audit_creation_date              2025-03-05
_audit_creation_method            'MOFbuilder_1.0'
_symmetry_space_group_name_H-M    'P1'
_symmetry_Int_Tables_number       1
_symmetry_cell_setting            triclinic
loop_
_symmetry_equiv_pos_as_xyz
  x,y,z
_cell_length_a                    34.5566
_cell_length_b                    34.5566
_cell_length_c                    34.5566
_cell_angle_alpha                 90.0
_cell_angle_beta                  90.0
_cell_angle_gamma                 90.0
loop_
_atom_site_label
_atom_site_type_symbol
_atom_site_fract_x
_atom_site_fract_y
_atom_site_fract_z
V1    V   0.10002  0.12812  0.31724
V2    V   0.10002  0.37188  0.81724
V3    V   0.10002  0.62812  0.68276
V4    V   0.10002  0.87188  0.18276
V5    V   0.12812  0.18276  0.60002
V6    V   0.12812  0.31724  0.10002
V7    V   0.12812  0.68276  0.39998
V8    V   0.12812  0.81724  0.89998
V9    V   0.18276  0.10002  0.87188
V10   V   0.18276  0.39998  0.37188
V11   V   0.18276  0.60002  0.12812
V12   V   0.18276  0.89998  0.62812
V13   V   0.31724  0.10002  0.12812
V14   V   0.31724  0.39998  0.62812
V15   V   0.31724  0.60002  0.87188
V16   V   0.31724  0.89998  0.37188
V17   V   0.37188  0.18276  0.39998
V18   V   0.37188  0.31724  0.89998
V19   V   0.37188  0.68276  0.60002
V20   V   0.37188  0.81724  0.10002
V21   V   0.39998  0.12812  0.68276
V22   V   0.39998  0.37188  0.18276
V23   V   0.39998  0.62812  0.31724
V24   V   0.39998  0.87188  0.81724
V25   V   0.60002  0.12812  0.18276
V26   V   0.60002  0.37188  0.68276
V27   V   0.60002  0.62812  0.81724
V28   V   0.60002  0.87188  0.31724
V29   V   0.62812  0.18276  0.89998
V30   V   0.62812  0.31724  0.39998
V31   V   0.62812  0.68276  0.10002
V32   V   0.62812  0.81724  0.60002
V33   V   0.68276  0.10002  0.62812
V34   V   0.68276  0.39998  0.12812
V35   V   0.68276  0.60002  0.37188
V36   V   0.68276  0.89998  0.87188
V37   V   0.81724  0.10002  0.37188
V38   V   0.81724  0.39998  0.87188
V39   V   0.81724  0.60002  0.62812
V40   V   0.81724  0.89998  0.12812
V41   V   0.87188  0.18276  0.10002
V42   V   0.87188  0.31724  0.60002
V43   V   0.87188  0.68276  0.89998
V44   V   0.87188  0.81724  0.39998
V45   V   0.89998  0.12812  0.81724
V46   V   0.89998  0.37188  0.31724
V47   V   0.89998  0.62812  0.18276
V48   V   0.89998  0.87188  0.68276
E1    E   0.00000  0.25000  0.10002
E2    E   0.00000  0.25000  0.60002
E3    E   0.00000  0.75000  0.39998
E4    E   0.00000  0.75000  0.89998
E5    E   0.04137  0.11407  0.84456
E6    E   0.04137  0.38593  0.34456
E7    E   0.04137  0.61407  0.15544
E8    E   0.04137  0.88593  0.65544
E9    E   0.10002  0.00000  0.25000
E10   E   0.10002  0.50000  0.75000
E11   E   0.11407  0.15544  0.45863
E12   E   0.11407  0.22268  0.20863
E13   E   0.11407  0.27732  0.70863
E14   E   0.11407  0.34456  0.95863
E15   E   0.11407  0.65544  0.54137
E16   E   0.11407  0.72268  0.79137
E17   E   0.11407  0.77732  0.29137
E18   E   0.11407  0.84456  0.04137
E19   E   0.14139  0.23595  0.84456
E20   E   0.14139  0.26405  0.34456
E21   E   0.14139  0.73595  0.15544
E22   E   0.14139  0.76405  0.65544
E23   E   0.15544  0.04137  0.61407
E24   E   0.15544  0.45863  0.11407
E25   E   0.15544  0.54137  0.38593
E26   E   0.15544  0.95863  0.88593
E27   E   0.15544  0.14139  0.73595
E28   E   0.15544  0.35861  0.23595
E29   E   0.15544  0.64139  0.26405
E30   E   0.15544  0.85861  0.76405
E31   E   0.20863  0.11407  0.22268
E32   E   0.20863  0.38593  0.72268
E33   E   0.20863  0.61407  0.77732
E34   E   0.20863  0.88593  0.27732
E35   E   0.22268  0.20863  0.11407
E36   E   0.22268  0.29137  0.61407
E37   E   0.22268  0.70863  0.88593
E38   E   0.22268  0.79137  0.38593
E39   E   0.23595  0.15544  0.35861
E40   E   0.23595  0.34456  0.85861
E41   E   0.23595  0.65544  0.64139
E42   E   0.23595  0.84456  0.14139
E43   E   0.25000  0.10002  0.00000
E44   E   0.25000  0.39998  0.50000
E45   E   0.25000  0.60002  0.00000
E46   E   0.25000  0.89998  0.50000
E47   E   0.26405  0.15544  0.64139
E48   E   0.26405  0.34456  0.14139
E49   E   0.26405  0.65544  0.35861
E50   E   0.26405  0.84456  0.85861
E51   E   0.27732  0.20863  0.88593
E52   E   0.27732  0.29137  0.38593
E53   E   0.27732  0.70863  0.11407
E54   E   0.27732  0.79137  0.61407
E55   E   0.29137  0.11407  0.77732
E56   E   0.29137  0.38593  0.27732
E57   E   0.29137  0.61407  0.22268
E58   E   0.29137  0.88593  0.72268
E59   E   0.34456  0.04137  0.38593
E60   E   0.34456  0.14139  0.26405
E61   E   0.34456  0.35861  0.76405
E62   E   0.34456  0.45863  0.88593
E63   E   0.34456  0.54137  0.61407
E64   E   0.34456  0.64139  0.73595
E65   E   0.34456  0.85861  0.23595
E66   E   0.34456  0.95863  0.11407
E67   E   0.35861  0.23595  0.15544
E68   E   0.35861  0.26405  0.65544
E69   E   0.35861  0.73595  0.84456
E70   E   0.35861  0.76405  0.34456
E71   E   0.38593  0.15544  0.54137
E72   E   0.38593  0.22268  0.79137
E73   E   0.38593  0.27732  0.29137
E74   E   0.38593  0.34456  0.04137
E75   E   0.38593  0.65544  0.45863
E76   E   0.38593  0.72268  0.20863
E77   E   0.38593  0.77732  0.70863
E78   E   0.38593  0.84456  0.95863
E79   E   0.39998  0.00000  0.75000
E80   E   0.39998  0.50000  0.25000
E81   E   0.45863  0.11407  0.15544
E82   E   0.45863  0.38593  0.65544
E83   E   0.45863  0.61407  0.84456
E84   E   0.45863  0.88593  0.34456
E85   E   0.50000  0.25000  0.39998
E86   E   0.50000  0.25000  0.89998
E87   E   0.50000  0.75000  0.10002
E88   E   0.50000  0.75000  0.60002
E89   E   0.54137  0.11407  0.65544
E90   E   0.54137  0.38593  0.15544
E91   E   0.54137  0.61407  0.34456
E92   E   0.54137  0.88593  0.84456
E93   E   0.60002  0.00000  0.25000
E94   E   0.60002  0.50000  0.75000
E95   E   0.61407  0.15544  0.04137
E96   E   0.61407  0.22268  0.29137
E97   E   0.61407  0.27732  0.79137
E98   E   0.61407  0.34456  0.54137
E99   E   0.61407  0.65544  0.95863
E100  E   0.61407  0.72268  0.70863
E101  E   0.61407  0.77732  0.20863
E102  E   0.61407  0.84456  0.45863
E103  E   0.64139  0.23595  0.65544
E104  E   0.64139  0.26405  0.15544
E105  E   0.64139  0.73595  0.34456
E106  E   0.64139  0.76405  0.84456
E107  E   0.65544  0.04137  0.88593
E108  E   0.65544  0.14139  0.76405
E109  E   0.65544  0.35861  0.26405
E110  E   0.65544  0.45863  0.38593
E111  E   0.65544  0.54137  0.11407
E112  E   0.65544  0.64139  0.23595
E113  E   0.65544  0.85861  0.73595
E114  E   0.65544  0.95863  0.61407
E115  E   0.70863  0.11407  0.27732
E116  E   0.70863  0.38593  0.77732
E117  E   0.70863  0.61407  0.72268
E118  E   0.70863  0.88593  0.22268
E119  E   0.72268  0.20863  0.38593
E120  E   0.72268  0.29137  0.88593
E121  E   0.72268  0.70863  0.61407
E122  E   0.72268  0.79137  0.11407
E123  E   0.73595  0.15544  0.14139
E124  E   0.73595  0.34456  0.64139
E125  E   0.73595  0.65544  0.85861
E126  E   0.73595  0.84456  0.35861
E127  E   0.75000  0.10002  0.50000
E128  E   0.75000  0.39998  0.00000
E129  E   0.75000  0.60002  0.50000
E130  E   0.75000  0.89998  0.00000
E131  E   0.76405  0.15544  0.85861
E132  E   0.76405  0.34456  0.35861
E133  E   0.76405  0.65544  0.14139
E134  E   0.76405  0.84456  0.64139
E135  E   0.77732  0.20863  0.61407
E136  E   0.77732  0.29137  0.11407
E137  E   0.77732  0.70863  0.38593
E138  E   0.77732  0.79137  0.88593
E139  E   0.79137  0.11407  0.72268
E140  E   0.79137  0.38593  0.22268
E141  E   0.79137  0.61407  0.27732
E142  E   0.79137  0.88593  0.77732
E143  E   0.84456  0.04137  0.11407
E144  E   0.84456  0.14139  0.23595
E145  E   0.84456  0.35861  0.73595
E146  E   0.84456  0.45863  0.61407
E147  E   0.84456  0.54137  0.88593
E148  E   0.84456  0.64139  0.76405
E149  E   0.84456  0.85861  0.26405
E150  E   0.84456  0.95863  0.38593
E151  E   0.85861  0.23595  0.34456
E152  E   0.85861  0.26405  0.84456
E153  E   0.85861  0.73595  0.65544
E154  E   0.85861  0.76405  0.15544
E155  E   0.88593  0.15544  0.95863
E156  E   0.88593  0.22268  0.70863
E157  E   0.88593  0.27732  0.20863
E158  E   0.88593  0.34456  0.45863
E159  E   0.88593  0.65544  0.04137
E160  E   0.88593  0.72268  0.29137
E161  E   0.88593  0.77732  0.79137
E162  E   0.88593  0.84456  0.54137
E163  E   0.89998  0.00000  0.75000
E164  E   0.89998  0.50000  0.25000
E165  E   0.95863  0.11407  0.34456
E166  E   0.95863  0.38593  0.84456
E167  E   0.95863  0.61407  0.65544
E168  E   0.95863  0.88593  0.15544
loop_
