data_svx_I-43d  hall_number: 516, V_con: 7
_audit_creation_date              2025-03-05
_audit_creation_method            'MOFbuilder_1.0'
_symmetry_space_group_name_H-M    'P1'
_symmetry_Int_Tables_number       1
_symmetry_cell_setting            triclinic
loop_
_symmetry_equiv_pos_as_xyz
  x,y,z
_cell_length_a                    37.818
_cell_length_b                    37.818
_cell_length_c                    37.818
_cell_angle_alpha                 90.0
_cell_angle_beta                  90.0
_cell_angle_gamma                 90.0
loop_
_atom_site_label
_atom_site_type_symbol
_atom_site_fract_x
_atom_site_fract_y
_atom_site_fract_z
V1    V   0.03151  0.06631  0.86438
V2    V   0.03151  0.93369  0.63562
V3    V   0.06631  0.13562  0.46849
V4    V   0.06631  0.86438  0.03151
V5    V   0.11438  0.31631  0.28151
V6    V   0.11438  0.68369  0.21849
V7    V   0.13562  0.46849  0.06631
V8    V   0.13562  0.53151  0.43369
V9    V   0.18369  0.28151  0.88562
V10   V   0.18369  0.71849  0.61438
V11   V   0.21849  0.11438  0.68369
V12   V   0.21849  0.88562  0.81631
V13   V   0.28151  0.11438  0.31631
V14   V   0.28151  0.88562  0.18369
V15   V   0.31631  0.28151  0.11438
V16   V   0.31631  0.71849  0.38562
V17   V   0.36438  0.46849  0.93369
V18   V   0.36438  0.53151  0.56631
V19   V   0.38562  0.31631  0.71849
V20   V   0.38562  0.68369  0.78151
V21   V   0.43369  0.13562  0.53151
V22   V   0.43369  0.86438  0.96849
V23   V   0.46849  0.06631  0.13562
V24   V   0.46849  0.93369  0.36438
V25   V   0.53151  0.43369  0.13562
V26   V   0.53151  0.56631  0.36438
V27   V   0.56631  0.36438  0.53151
V28   V   0.56631  0.63562  0.96849
V29   V   0.61438  0.18369  0.71849
V30   V   0.61438  0.81631  0.78151
V31   V   0.63562  0.03151  0.93369
V32   V   0.63562  0.96849  0.56631
V33   V   0.68369  0.21849  0.11438
V34   V   0.68369  0.78151  0.38562
V35   V   0.71849  0.38562  0.31631
V36   V   0.71849  0.61438  0.18369
V37   V   0.78151  0.38562  0.68369
V38   V   0.78151  0.61438  0.81631
V39   V   0.81631  0.21849  0.88562
V40   V   0.81631  0.78151  0.61438
V41   V   0.86438  0.03151  0.06631
V42   V   0.86438  0.96849  0.43369
V43   V   0.88562  0.18369  0.28151
V44   V   0.88562  0.81631  0.21849
V45   V   0.93369  0.36438  0.46849
V46   V   0.93369  0.63562  0.03151
V47   V   0.96849  0.43369  0.86438
V48   V   0.96849  0.56631  0.63562
E1    E   0.00000  0.25000  0.28151
E2    E   0.00000  0.25000  0.46849
E3    E   0.00000  0.75000  0.03151
E4    E   0.00000  0.75000  0.21849
E5    E   0.02403  0.34035  0.37500
E6    E   0.02403  0.65965  0.12500
E7    E   0.03151  0.00000  0.75000
E8    E   0.03465  0.44795  0.45109
E9    E   0.03465  0.55205  0.04891
E10   E   0.04891  0.03465  0.55205
E11   E   0.04891  0.96535  0.94795
E12   E   0.05205  0.45109  0.96535
E13   E   0.05205  0.54891  0.53465
E14   E   0.07609  0.35760  0.87500
E15   E   0.07609  0.64240  0.62500
E16   E   0.09035  0.22597  0.37500
E17   E   0.09035  0.77403  0.12500
E18   E   0.10760  0.17391  0.87500
E19   E   0.10760  0.82609  0.62500
E20   E   0.12500  0.02403  0.65965
E21   E   0.12500  0.09035  0.77403
E22   E   0.12500  0.39240  0.17391
E23   E   0.12500  0.42391  0.35760
E24   E   0.12500  0.57609  0.14240
E25   E   0.12500  0.60760  0.32609
E26   E   0.12500  0.90965  0.72597
E27   E   0.12500  0.97597  0.84035
E28   E   0.14240  0.12500  0.57609
E29   E   0.14240  0.87500  0.92391
E30   E   0.15965  0.37500  0.97597
E31   E   0.15965  0.62500  0.52403
E32   E   0.17391  0.12500  0.39240
E33   E   0.17391  0.87500  0.10760
E34   E   0.19795  0.21535  0.29891
E35   E   0.19795  0.78465  0.20109
E36   E   0.20109  0.19795  0.78465
E37   E   0.20109  0.80205  0.71535
E38   E   0.21535  0.29891  0.19795
E39   E   0.21535  0.70109  0.30205
E40   E   0.21849  0.00000  0.75000
E41   E   0.22597  0.37500  0.09035
E42   E   0.22597  0.62500  0.40965
E43   E   0.25000  0.28151  0.00000
E44   E   0.25000  0.46849  0.00000
E45   E   0.25000  0.53151  0.50000
E46   E   0.25000  0.71849  0.50000
E47   E   0.27403  0.37500  0.90965
E48   E   0.27403  0.62500  0.59035
E49   E   0.28151  0.00000  0.25000
E50   E   0.28465  0.29891  0.80205
E51   E   0.28465  0.70109  0.69795
E52   E   0.29891  0.19795  0.21535
E53   E   0.29891  0.80205  0.28465
E54   E   0.30205  0.21535  0.70109
E55   E   0.30205  0.78465  0.79891
E56   E   0.32609  0.12500  0.60760
E57   E   0.32609  0.87500  0.89240
E58   E   0.34035  0.37500  0.02403
E59   E   0.34035  0.62500  0.47597
E60   E   0.35760  0.12500  0.42391
E61   E   0.35760  0.87500  0.07609
E62   E   0.37500  0.02403  0.34035
E63   E   0.37500  0.09035  0.22597
E64   E   0.37500  0.39240  0.82609
E65   E   0.37500  0.42391  0.64240
E66   E   0.37500  0.57609  0.85760
E67   E   0.37500  0.60760  0.67391
E68   E   0.37500  0.90965  0.27403
E69   E   0.37500  0.97597  0.15965
E70   E   0.39240  0.17391  0.12500
E71   E   0.39240  0.82609  0.37500
E72   E   0.40965  0.22597  0.62500
E73   E   0.40965  0.77403  0.87500
E74   E   0.42391  0.35760  0.12500
E75   E   0.42391  0.64240  0.37500
E76   E   0.44795  0.45109  0.03465
E77   E   0.44795  0.54891  0.46535
E78   E   0.45109  0.03465  0.44795
E79   E   0.45109  0.96535  0.05205
E80   E   0.46535  0.44795  0.54891
E81   E   0.46535  0.55205  0.95109
E82   E   0.46849  0.00000  0.25000
E83   E   0.47597  0.34035  0.62500
E84   E   0.47597  0.65965  0.87500
E85   E   0.50000  0.25000  0.53151
E86   E   0.50000  0.25000  0.71849
E87   E   0.50000  0.75000  0.78151
E88   E   0.50000  0.75000  0.96849
E89   E   0.52403  0.15965  0.62500
E90   E   0.52403  0.84035  0.87500
E91   E   0.53151  0.50000  0.25000
E92   E   0.53465  0.05205  0.54891
E93   E   0.53465  0.94795  0.95109
E94   E   0.54891  0.46535  0.44795
E95   E   0.54891  0.53465  0.05205
E96   E   0.55205  0.04891  0.03465
E97   E   0.55205  0.95109  0.46535
E98   E   0.57609  0.14240  0.12500
E99   E   0.57609  0.85760  0.37500
E100  E   0.59035  0.27403  0.62500
E101  E   0.59035  0.72597  0.87500
E102  E   0.60760  0.32609  0.12500
E103  E   0.60760  0.67391  0.37500
E104  E   0.62500  0.07609  0.64240
E105  E   0.62500  0.10760  0.82609
E106  E   0.62500  0.40965  0.22597
E107  E   0.62500  0.47597  0.34035
E108  E   0.62500  0.52403  0.15965
E109  E   0.62500  0.59035  0.27403
E110  E   0.62500  0.89240  0.67391
E111  E   0.62500  0.92391  0.85760
E112  E   0.64240  0.37500  0.42391
E113  E   0.64240  0.62500  0.07609
E114  E   0.65965  0.12500  0.02403
E115  E   0.65965  0.87500  0.47597
E116  E   0.67391  0.37500  0.60760
E117  E   0.67391  0.62500  0.89240
E118  E   0.69795  0.28465  0.70109
E119  E   0.69795  0.71535  0.79891
E120  E   0.70109  0.30205  0.21535
E121  E   0.70109  0.69795  0.28465
E122  E   0.71535  0.20109  0.80205
E123  E   0.71535  0.79891  0.69795
E124  E   0.71849  0.50000  0.25000
E125  E   0.72597  0.12500  0.90965
E126  E   0.72597  0.87500  0.59035
E127  E   0.75000  0.03151  0.00000
E128  E   0.75000  0.21849  0.00000
E129  E   0.75000  0.78151  0.50000
E130  E   0.75000  0.96849  0.50000
E131  E   0.77403  0.12500  0.09035
E132  E   0.77403  0.87500  0.40965
E133  E   0.78151  0.50000  0.75000
E134  E   0.78465  0.20109  0.19795
E135  E   0.78465  0.79891  0.30205
E136  E   0.79891  0.30205  0.78465
E137  E   0.79891  0.69795  0.71535
E138  E   0.80205  0.28465  0.29891
E139  E   0.80205  0.71535  0.20109
E140  E   0.82609  0.37500  0.39240
E141  E   0.82609  0.62500  0.10760
E142  E   0.84035  0.12500  0.97597
E143  E   0.84035  0.87500  0.52403
E144  E   0.85760  0.37500  0.57609
E145  E   0.85760  0.62500  0.92391
E146  E   0.87500  0.07609  0.35760
E147  E   0.87500  0.10760  0.17391
E148  E   0.87500  0.40965  0.77403
E149  E   0.87500  0.47597  0.65965
E150  E   0.87500  0.52403  0.84035
E151  E   0.87500  0.59035  0.72597
E152  E   0.87500  0.89240  0.32609
E153  E   0.87500  0.92391  0.14240
E154  E   0.89240  0.32609  0.87500
E155  E   0.89240  0.67391  0.62500
E156  E   0.90965  0.27403  0.37500
E157  E   0.90965  0.72597  0.12500
E158  E   0.92391  0.14240  0.87500
E159  E   0.92391  0.85760  0.62500
E160  E   0.94795  0.04891  0.96535
E161  E   0.94795  0.95109  0.53465
E162  E   0.95109  0.46535  0.55205
E163  E   0.95109  0.53465  0.94795
E164  E   0.96535  0.05205  0.45109
E165  E   0.96535  0.94795  0.04891
E166  E   0.96849  0.50000  0.75000
E167  E   0.97597  0.15965  0.37500
E168  E   0.97597  0.84035  0.12500
loop_
