data_swq_I4132  hall_number: 510, V_con: 7
_audit_creation_date              2025-03-05
_audit_creation_method            'MOFbuilder_1.0'
_symmetry_space_group_name_H-M    'P1'
_symmetry_Int_Tables_number       1
_symmetry_cell_setting            triclinic
loop_
_symmetry_equiv_pos_as_xyz
  x,y,z
_cell_length_a                    37.6622
_cell_length_b                    37.6622
_cell_length_c                    37.6622
_cell_angle_alpha                 90.0
_cell_angle_beta                  90.0
_cell_angle_gamma                 90.0
loop_
_atom_site_label
_atom_site_type_symbol
_atom_site_fract_x
_atom_site_fract_y
_atom_site_fract_z
V1    V   0.00425  0.35432  0.44219
V2    V   0.00425  0.64568  0.05781
V3    V   0.05781  0.00425  0.64568
V4    V   0.05781  0.99575  0.85432
V5    V   0.10432  0.25425  0.80781
V6    V   0.10432  0.74575  0.69219
V7    V   0.14568  0.44219  0.99575
V8    V   0.14568  0.55781  0.50425
V9    V   0.19219  0.39568  0.25425
V10   V   0.19219  0.60432  0.24575
V11   V   0.24575  0.19219  0.60432
V12   V   0.24575  0.80781  0.89568
V13   V   0.25425  0.19219  0.39568
V14   V   0.25425  0.80781  0.10432
V15   V   0.30781  0.39568  0.74575
V16   V   0.30781  0.60432  0.75425
V17   V   0.35432  0.44219  0.00425
V18   V   0.35432  0.55781  0.49575
V19   V   0.39568  0.25425  0.19219
V20   V   0.39568  0.74575  0.30781
V21   V   0.44219  0.00425  0.35432
V22   V   0.44219  0.99575  0.14568
V23   V   0.49575  0.35432  0.55781
V24   V   0.49575  0.64568  0.94219
V25   V   0.50425  0.14568  0.55781
V26   V   0.50425  0.85432  0.94219
V27   V   0.55781  0.49575  0.35432
V28   V   0.55781  0.50425  0.14568
V29   V   0.60432  0.24575  0.19219
V30   V   0.60432  0.75425  0.30781
V31   V   0.64568  0.05781  0.00425
V32   V   0.64568  0.94219  0.49575
V33   V   0.69219  0.10432  0.74575
V34   V   0.69219  0.89568  0.75425
V35   V   0.74575  0.30781  0.39568
V36   V   0.74575  0.69219  0.10432
V37   V   0.75425  0.30781  0.60432
V38   V   0.75425  0.69219  0.89568
V39   V   0.80781  0.10432  0.25425
V40   V   0.80781  0.89568  0.24575
V41   V   0.85432  0.05781  0.99575
V42   V   0.85432  0.94219  0.50425
V43   V   0.89568  0.24575  0.80781
V44   V   0.89568  0.75425  0.69219
V45   V   0.94219  0.49575  0.64568
V46   V   0.94219  0.50425  0.85432
V47   V   0.99575  0.14568  0.44219
V48   V   0.99575  0.85432  0.05781
E1    E   0.00000  0.25000  0.44219
E2    E   0.00000  0.25000  0.80781
E3    E   0.00000  0.75000  0.05781
E4    E   0.00000  0.75000  0.69219
E5    E   0.02325  0.37925  0.83107
E6    E   0.02325  0.62075  0.66893
E7    E   0.02678  0.07496  0.54393
E8    E   0.02678  0.92504  0.95607
E9    E   0.04393  0.47322  0.92504
E10   E   0.04393  0.52678  0.57496
E11   E   0.05781  0.00000  0.75000
E12   E   0.07496  0.45607  0.47322
E13   E   0.07496  0.54393  0.02678
E14   E   0.08107  0.12500  0.83107
E15   E   0.08107  0.12925  0.72675
E16   E   0.08107  0.87075  0.77325
E17   E   0.08107  0.87500  0.66893
E18   E   0.08107  0.12500  0.83107
E19   E   0.08107  0.87500  0.66893
E20   E   0.09822  0.37500  0.34822
E21   E   0.09822  0.62500  0.15178
E22   E   0.09822  0.37500  0.34822
E23   E   0.09822  0.62500  0.15178
E24   E   0.12075  0.16893  0.52325
E25   E   0.12075  0.83107  0.97675
E26   E   0.12500  0.16893  0.41893
E27   E   0.12500  0.16893  0.41893
E28   E   0.12500  0.34822  0.90178
E29   E   0.12500  0.65178  0.59822
E30   E   0.12500  0.83107  0.08107
E31   E   0.12500  0.83107  0.08107
E32   E   0.12925  0.27325  0.41893
E33   E   0.12925  0.72675  0.08107
E34   E   0.15178  0.09822  0.62500
E35   E   0.15178  0.90178  0.87500
E36   E   0.15178  0.09822  0.62500
E37   E   0.15178  0.90178  0.87500
E38   E   0.16893  0.41893  0.12500
E39   E   0.16893  0.58107  0.37500
E40   E   0.16893  0.41893  0.12500
E41   E   0.16893  0.47675  0.37925
E42   E   0.16893  0.52325  0.12075
E43   E   0.16893  0.58107  0.37500
E44   E   0.17504  0.22322  0.70607
E45   E   0.17504  0.77678  0.79393
E46   E   0.19219  0.50000  0.25000
E47   E   0.20607  0.32496  0.77678
E48   E   0.20607  0.67504  0.72322
E49   E   0.22322  0.29393  0.32496
E50   E   0.22322  0.70607  0.17504
E51   E   0.22675  0.41893  0.87075
E52   E   0.22675  0.58107  0.62925
E53   E   0.25000  0.19219  0.50000
E54   E   0.25000  0.44219  0.00000
E55   E   0.25000  0.55781  0.50000
E56   E   0.25000  0.80781  0.00000
E57   E   0.27325  0.41893  0.12925
E58   E   0.27325  0.58107  0.37075
E59   E   0.27678  0.29393  0.67504
E60   E   0.27678  0.70607  0.82496
E61   E   0.29393  0.32496  0.22322
E62   E   0.29393  0.67504  0.27678
E63   E   0.30781  0.50000  0.75000
E64   E   0.32496  0.22322  0.29393
E65   E   0.32496  0.77678  0.20607
E66   E   0.33107  0.41893  0.87500
E67   E   0.33107  0.47675  0.62075
E68   E   0.33107  0.52325  0.87925
E69   E   0.33107  0.58107  0.62500
E70   E   0.34822  0.09822  0.37500
E71   E   0.34822  0.09822  0.37500
E72   E   0.34822  0.90178  0.12500
E73   E   0.37075  0.27325  0.58107
E74   E   0.37075  0.72675  0.91893
E75   E   0.37500  0.16893  0.58107
E76   E   0.37500  0.16893  0.58107
E77   E   0.37500  0.34822  0.09822
E78   E   0.37500  0.34822  0.09822
E79   E   0.37500  0.65178  0.40178
E80   E   0.37500  0.83107  0.91893
E81   E   0.37925  0.16893  0.47675
E82   E   0.37925  0.83107  0.02325
E83   E   0.40178  0.37500  0.65178
E84   E   0.40178  0.62500  0.84822
E85   E   0.41893  0.12500  0.16893
E86   E   0.41893  0.12500  0.16893
E87   E   0.41893  0.12925  0.27325
E88   E   0.41893  0.87075  0.22675
E89   E   0.41893  0.87500  0.33107
E90   E   0.42504  0.45607  0.52678
E91   E   0.42504  0.54393  0.97322
E92   E   0.44219  0.00000  0.25000
E93   E   0.45607  0.47322  0.07496
E94   E   0.45607  0.52678  0.42504
E95   E   0.47322  0.07496  0.45607
E96   E   0.47322  0.92504  0.04393
E97   E   0.47675  0.37925  0.16893
E98   E   0.47675  0.62075  0.33107
E99   E   0.50000  0.25000  0.19219
E100  E   0.50000  0.25000  0.55781
E101  E   0.50000  0.75000  0.30781
E102  E   0.50000  0.75000  0.94219
E103  E   0.52325  0.12075  0.16893
E104  E   0.52325  0.87925  0.33107
E105  E   0.52678  0.42504  0.45607
E106  E   0.52678  0.57496  0.04393
E107  E   0.54393  0.02678  0.07496
E108  E   0.54393  0.97322  0.42504
E109  E   0.55781  0.50000  0.25000
E110  E   0.57496  0.04393  0.52678
E111  E   0.57496  0.95607  0.97322
E112  E   0.58107  0.37075  0.27325
E113  E   0.58107  0.37500  0.16893
E114  E   0.58107  0.37500  0.16893
E115  E   0.58107  0.62500  0.33107
E116  E   0.58107  0.62925  0.22675
E117  E   0.59822  0.12500  0.65178
E118  E   0.59822  0.87500  0.84822
E119  E   0.62075  0.33107  0.47675
E120  E   0.62075  0.66893  0.02325
E121  E   0.62500  0.15178  0.09822
E122  E   0.62500  0.15178  0.09822
E123  E   0.62500  0.33107  0.58107
E124  E   0.62500  0.66893  0.91893
E125  E   0.62500  0.84822  0.40178
E126  E   0.62925  0.22675  0.58107
E127  E   0.62925  0.77325  0.91893
E128  E   0.65178  0.40178  0.37500
E129  E   0.65178  0.59822  0.12500
E130  E   0.66893  0.02325  0.62075
E131  E   0.66893  0.08107  0.87500
E132  E   0.66893  0.08107  0.87500
E133  E   0.66893  0.91893  0.62500
E134  E   0.66893  0.97675  0.87925
E135  E   0.67504  0.27678  0.29393
E136  E   0.67504  0.72322  0.20607
E137  E   0.69219  0.00000  0.75000
E138  E   0.70607  0.17504  0.22322
E139  E   0.70607  0.82496  0.27678
E140  E   0.72322  0.20607  0.67504
E141  E   0.72322  0.79393  0.82496
E142  E   0.72675  0.08107  0.12925
E143  E   0.72675  0.91893  0.37075
E144  E   0.75000  0.05781  0.00000
E145  E   0.75000  0.30781  0.50000
E146  E   0.75000  0.69219  0.00000
E147  E   0.75000  0.94219  0.50000
E148  E   0.77325  0.08107  0.87075
E149  E   0.77325  0.91893  0.62925
E150  E   0.77678  0.20607  0.32496
E151  E   0.77678  0.79393  0.17504
E152  E   0.79393  0.17504  0.77678
E153  E   0.79393  0.82496  0.72322
E154  E   0.80781  0.00000  0.25000
E155  E   0.82496  0.27678  0.70607
E156  E   0.82496  0.72322  0.79393
E157  E   0.83107  0.02325  0.37925
E158  E   0.83107  0.08107  0.12500
E159  E   0.83107  0.08107  0.12500
E160  E   0.83107  0.91893  0.37500
E161  E   0.83107  0.97675  0.12075
E162  E   0.84822  0.40178  0.62500
E163  E   0.84822  0.59822  0.87500
E164  E   0.87075  0.22675  0.41893
E165  E   0.87075  0.77325  0.08107
E166  E   0.87500  0.15178  0.90178
E167  E   0.87500  0.15178  0.90178
E168  E   0.87500  0.33107  0.41893
E169  E   0.87500  0.66893  0.08107
E170  E   0.87500  0.66893  0.08107
E171  E   0.87500  0.84822  0.59822
E172  E   0.87925  0.33107  0.52325
E173  E   0.87925  0.66893  0.97675
E174  E   0.90178  0.12500  0.34822
E175  E   0.90178  0.87500  0.15178
E176  E   0.90178  0.87500  0.15178
E177  E   0.91893  0.37075  0.72675
E178  E   0.91893  0.37500  0.83107
E179  E   0.91893  0.62500  0.66893
E180  E   0.91893  0.62925  0.77325
E181  E   0.92504  0.04393  0.47322
E182  E   0.92504  0.95607  0.02678
E183  E   0.94219  0.50000  0.75000
E184  E   0.95607  0.02678  0.92504
E185  E   0.95607  0.97322  0.57496
E186  E   0.97322  0.42504  0.54393
E187  E   0.97322  0.57496  0.95607
E188  E   0.97675  0.12075  0.83107
E189  E   0.97675  0.87925  0.66893
loop_
