data_sxi_P4132  hall_number: 509, V_con: 6
_audit_creation_date              2025-03-05
_audit_creation_method            'MOFbuilder_1.0'
_symmetry_space_group_name_H-M    'P1'
_symmetry_Int_Tables_number       1
_symmetry_cell_setting            triclinic
loop_
_symmetry_equiv_pos_as_xyz
  x,y,z
_cell_length_a                    30.598
_cell_length_b                    30.598
_cell_length_c                    30.598
_cell_angle_alpha                 90.0
_cell_angle_beta                  90.0
_cell_angle_gamma                 90.0
loop_
_atom_site_label
_atom_site_type_symbol
_atom_site_fract_x
_atom_site_fract_y
_atom_site_fract_z
V1    V   0.03799  0.33953  0.39392
V2    V   0.08953  0.28799  0.85608
V3    V   0.10608  0.96201  0.83953
V4    V   0.14392  0.58953  0.21201
V5    V   0.16047  0.60608  0.53799
V6    V   0.21201  0.14392  0.58953
V7    V   0.28799  0.85608  0.08953
V8    V   0.33953  0.39392  0.03799
V9    V   0.35608  0.41047  0.71201
V10   V   0.39392  0.03799  0.33953
V11   V   0.41047  0.71201  0.35608
V12   V   0.46201  0.66047  0.89392
V13   V   0.53799  0.16047  0.60608
V14   V   0.58953  0.21201  0.14392
V15   V   0.60608  0.53799  0.16047
V16   V   0.64392  0.91047  0.78799
V17   V   0.66047  0.89392  0.46201
V18   V   0.71201  0.35608  0.41047
V19   V   0.78799  0.64392  0.91047
V20   V   0.83953  0.10608  0.96201
V21   V   0.85608  0.08953  0.28799
V22   V   0.89392  0.46201  0.66047
V23   V   0.91047  0.78799  0.64392
V24   V   0.96201  0.83953  0.10608
E1    E   0.00828  0.87500  0.74172
E2    E   0.02719  0.53405  0.59923
E3    E   0.03405  0.90077  0.97281
E4    E   0.03547  0.69704  0.59095
E5    E   0.05296  0.71453  0.15905
E6    E   0.09095  0.46453  0.30296
E7    E   0.09781  0.12500  0.84781
E8    E   0.09781  0.12500  0.84781
E9    E   0.09923  0.47281  0.46595
E10   E   0.12500  0.24172  0.49172
E11   E   0.12500  0.24172  0.49172
E12   E   0.12500  0.84781  0.09781
E13   E   0.12500  0.84781  0.09781
E14   E   0.15077  0.21595  0.72281
E15   E   0.15219  0.59781  0.37500
E16   E   0.15219  0.59781  0.37500
E17   E   0.15905  0.05296  0.71453
E18   E   0.19704  0.90905  0.96453
E19   E   0.21453  0.34095  0.94704
E20   E   0.21595  0.72281  0.15077
E21   E   0.22281  0.34923  0.78405
E22   E   0.24172  0.49172  0.12500
E23   E   0.24172  0.49172  0.12500
E24   E   0.25828  0.50828  0.62500
E25   E   0.27719  0.65077  0.28405
E26   E   0.28405  0.27719  0.65077
E27   E   0.28547  0.65905  0.44704
E28   E   0.30296  0.09095  0.46453
E29   E   0.34095  0.94704  0.21453
E30   E   0.34781  0.40219  0.87500
E31   E   0.34923  0.78405  0.22281
E32   E   0.37500  0.15219  0.59781
E33   E   0.37500  0.15219  0.59781
E34   E   0.37500  0.75828  0.99172
E35   E   0.40077  0.52719  0.96595
E36   E   0.40219  0.87500  0.34781
E37   E   0.40905  0.53547  0.80296
E38   E   0.44704  0.28547  0.65905
E39   E   0.46453  0.30296  0.09095
E40   E   0.46595  0.09923  0.47281
E41   E   0.47281  0.46595  0.09923
E42   E   0.49172  0.12500  0.24172
E43   E   0.49172  0.12500  0.24172
E44   E   0.50828  0.62500  0.25828
E45   E   0.52719  0.96595  0.40077
E46   E   0.53405  0.59923  0.02719
E47   E   0.53547  0.80296  0.40905
E48   E   0.55296  0.78547  0.84095
E49   E   0.59095  0.03547  0.69704
E50   E   0.59781  0.37500  0.15219
E51   E   0.59781  0.37500  0.15219
E52   E   0.59923  0.02719  0.53405
E53   E   0.62500  0.25828  0.50828
E54   E   0.62500  0.65219  0.90219
E55   E   0.65077  0.28405  0.27719
E56   E   0.65219  0.90219  0.62500
E57   E   0.65905  0.44704  0.28547
E58   E   0.69704  0.59095  0.03547
E59   E   0.71453  0.15905  0.05296
E60   E   0.71595  0.77719  0.84923
E61   E   0.72281  0.15077  0.21595
E62   E   0.74172  0.00828  0.87500
E63   E   0.75828  0.99172  0.37500
E64   E   0.77719  0.84923  0.71595
E65   E   0.78405  0.22281  0.34923
E66   E   0.78547  0.84095  0.55296
E67   E   0.80296  0.40905  0.53547
E68   E   0.84095  0.55296  0.78547
E69   E   0.84781  0.09781  0.12500
E70   E   0.84781  0.09781  0.12500
E71   E   0.84923  0.71595  0.77719
E72   E   0.87500  0.34781  0.40219
E73   E   0.87500  0.74172  0.00828
E74   E   0.90077  0.97281  0.03405
E75   E   0.90219  0.62500  0.65219
E76   E   0.90905  0.96453  0.19704
E77   E   0.94704  0.21453  0.34095
E78   E   0.96453  0.19704  0.90905
E79   E   0.96595  0.40077  0.52719
E80   E   0.97281  0.03405  0.90077
E81   E   0.99172  0.37500  0.75828
loop_
