data_sxp_Ia-3d  hall_number: 530, V_con: 6
_audit_creation_date              2025-03-05
_audit_creation_method            'MOFbuilder_1.0'
_symmetry_space_group_name_H-M    'P1'
_symmetry_Int_Tables_number       1
_symmetry_cell_setting            triclinic
loop_
_symmetry_equiv_pos_as_xyz
  x,y,z
_cell_length_a                    43.6508
_cell_length_b                    43.6508
_cell_length_c                    43.6508
_cell_angle_alpha                 90.0
_cell_angle_beta                  90.0
_cell_angle_gamma                 90.0
loop_
_atom_site_label
_atom_site_type_symbol
_atom_site_fract_x
_atom_site_fract_y
_atom_site_fract_z
V1    V   0.03881  0.05257  0.64823
V2    V   0.03881  0.44743  0.14823
V3    V   0.03881  0.55257  0.35177
V4    V   0.03881  0.94743  0.85177
V5    V   0.05257  0.14823  0.96119
V6    V   0.05257  0.35177  0.46119
V7    V   0.05257  0.64823  0.03881
V8    V   0.05257  0.85177  0.53881
V9    V   0.10177  0.19743  0.28881
V10   V   0.10177  0.30257  0.78881
V11   V   0.10177  0.69743  0.71119
V12   V   0.10177  0.80257  0.21119
V13   V   0.14823  0.03881  0.44743
V14   V   0.14823  0.46119  0.94743
V15   V   0.14823  0.53881  0.55257
V16   V   0.14823  0.96119  0.05257
V17   V   0.19743  0.21119  0.60177
V18   V   0.19743  0.28881  0.10177
V19   V   0.19743  0.71119  0.39823
V20   V   0.19743  0.78881  0.89823
V21   V   0.21119  0.10177  0.80257
V22   V   0.21119  0.39823  0.30257
V23   V   0.21119  0.60177  0.19743
V24   V   0.21119  0.89823  0.69743
V25   V   0.28881  0.10177  0.19743
V26   V   0.28881  0.39823  0.69743
V27   V   0.28881  0.60177  0.80257
V28   V   0.28881  0.89823  0.30257
V29   V   0.30257  0.21119  0.39823
V30   V   0.30257  0.28881  0.89823
V31   V   0.30257  0.71119  0.60177
V32   V   0.30257  0.78881  0.10177
V33   V   0.35177  0.03881  0.55257
V34   V   0.35177  0.46119  0.05257
V35   V   0.35177  0.53881  0.44743
V36   V   0.35177  0.96119  0.94743
V37   V   0.39823  0.19743  0.71119
V38   V   0.39823  0.30257  0.21119
V39   V   0.39823  0.69743  0.28881
V40   V   0.39823  0.80257  0.78881
V41   V   0.44743  0.14823  0.03881
V42   V   0.44743  0.35177  0.53881
V43   V   0.44743  0.64823  0.96119
V44   V   0.44743  0.85177  0.46119
V45   V   0.46119  0.05257  0.35177
V46   V   0.46119  0.44743  0.85177
V47   V   0.46119  0.55257  0.64823
V48   V   0.46119  0.94743  0.14823
V49   V   0.53881  0.05257  0.85177
V50   V   0.53881  0.44743  0.35177
V51   V   0.53881  0.55257  0.14823
V52   V   0.53881  0.94743  0.64823
V53   V   0.55257  0.14823  0.53881
V54   V   0.55257  0.35177  0.03881
V55   V   0.55257  0.64823  0.46119
V56   V   0.55257  0.85177  0.96119
V57   V   0.60177  0.19743  0.21119
V58   V   0.60177  0.30257  0.71119
V59   V   0.60177  0.69743  0.78881
V60   V   0.60177  0.80257  0.28881
V61   V   0.64823  0.03881  0.05257
V62   V   0.64823  0.46119  0.55257
V63   V   0.64823  0.53881  0.94743
V64   V   0.64823  0.96119  0.44743
V65   V   0.69743  0.21119  0.89823
V66   V   0.69743  0.28881  0.39823
V67   V   0.69743  0.71119  0.10177
V68   V   0.69743  0.78881  0.60177
V69   V   0.71119  0.10177  0.69743
V70   V   0.71119  0.39823  0.19743
V71   V   0.71119  0.60177  0.30257
V72   V   0.71119  0.89823  0.80257
V73   V   0.78881  0.10177  0.30257
V74   V   0.78881  0.39823  0.80257
V75   V   0.78881  0.60177  0.69743
V76   V   0.78881  0.89823  0.19743
V77   V   0.80257  0.21119  0.10177
V78   V   0.80257  0.28881  0.60177
V79   V   0.80257  0.71119  0.89823
V80   V   0.80257  0.78881  0.39823
V81   V   0.85177  0.03881  0.94743
V82   V   0.85177  0.46119  0.44743
V83   V   0.85177  0.53881  0.05257
V84   V   0.85177  0.96119  0.55257
V85   V   0.89823  0.19743  0.78881
V86   V   0.89823  0.30257  0.28881
V87   V   0.89823  0.69743  0.21119
V88   V   0.89823  0.80257  0.71119
V89   V   0.94743  0.14823  0.46119
V90   V   0.94743  0.35177  0.96119
V91   V   0.94743  0.64823  0.53881
V92   V   0.94743  0.85177  0.03881
V93   V   0.96119  0.05257  0.14823
V94   V   0.96119  0.44743  0.64823
V95   V   0.96119  0.55257  0.85177
V96   V   0.96119  0.94743  0.35177
E1    E   0.00000  0.25000  0.28881
E2    E   0.00000  0.25000  0.46119
E3    E   0.00000  0.25000  0.78881
E4    E   0.00000  0.25000  0.96119
E5    E   0.00000  0.75000  0.03881
E6    E   0.00000  0.75000  0.21119
E7    E   0.00000  0.75000  0.53881
E8    E   0.00000  0.75000  0.71119
E9    E   0.00688  0.10040  0.05471
E10   E   0.00688  0.39960  0.55471
E11   E   0.00688  0.60040  0.94529
E12   E   0.00688  0.89960  0.44529
E13   E   0.03881  0.00000  0.75000
E14   E   0.03881  0.50000  0.25000
E15   E   0.04569  0.04783  0.90648
E16   E   0.04569  0.45217  0.40648
E17   E   0.04569  0.54783  0.09352
E18   E   0.04569  0.95217  0.59352
E19   E   0.04783  0.09352  0.45431
E20   E   0.04783  0.40648  0.95431
E21   E   0.04783  0.59352  0.54569
E22   E   0.04783  0.90648  0.04569
E23   E   0.05471  0.00688  0.10040
E24   E   0.05471  0.49312  0.60040
E25   E   0.05471  0.50688  0.89960
E26   E   0.05471  0.99312  0.39960
E27   E   0.09352  0.04569  0.54783
E28   E   0.09352  0.45431  0.04783
E29   E   0.09352  0.54569  0.45217
E30   E   0.09352  0.95431  0.95217
E31   E   0.10040  0.05471  0.00688
E32   E   0.10040  0.44529  0.50688
E33   E   0.10040  0.55471  0.99312
E34   E   0.10040  0.94529  0.49312
E35   E   0.11812  0.13188  0.62500
E36   E   0.11812  0.36812  0.12500
E37   E   0.11812  0.63188  0.37500
E38   E   0.11812  0.86812  0.87500
E39   E   0.12500  0.11812  0.36812
E40   E   0.12500  0.38188  0.86812
E41   E   0.12500  0.61812  0.63188
E42   E   0.12500  0.88188  0.13188
E43   E   0.13188  0.12500  0.88188
E44   E   0.13188  0.37500  0.38188
E45   E   0.13188  0.62500  0.11812
E46   E   0.13188  0.87500  0.61812
E47   E   0.14960  0.24312  0.19529
E48   E   0.14960  0.25688  0.69529
E49   E   0.14960  0.74312  0.80471
E50   E   0.14960  0.75688  0.30471
E51   E   0.15648  0.20217  0.79569
E52   E   0.15648  0.29783  0.29569
E53   E   0.15648  0.70217  0.20431
E54   E   0.15648  0.79783  0.70431
E55   E   0.19529  0.14960  0.24312
E56   E   0.19529  0.35040  0.74312
E57   E   0.19529  0.64960  0.75688
E58   E   0.19529  0.85040  0.25688
E59   E   0.20217  0.20431  0.34352
E60   E   0.20217  0.29569  0.84352
E61   E   0.20217  0.70431  0.65648
E62   E   0.20217  0.79569  0.15648
E63   E   0.20431  0.15648  0.70217
E64   E   0.20431  0.34352  0.20217
E65   E   0.20431  0.65648  0.29783
E66   E   0.20431  0.84352  0.79783
E67   E   0.21119  0.00000  0.75000
E68   E   0.21119  0.50000  0.25000
E69   E   0.24312  0.19529  0.14960
E70   E   0.24312  0.30471  0.64960
E71   E   0.24312  0.69529  0.85040
E72   E   0.24312  0.80471  0.35040
E73   E   0.25000  0.03881  0.50000
E74   E   0.25000  0.21119  0.50000
E75   E   0.25000  0.28881  0.00000
E76   E   0.25000  0.46119  0.00000
E77   E   0.25000  0.53881  0.50000
E78   E   0.25000  0.71119  0.50000
E79   E   0.25000  0.78881  0.00000
E80   E   0.25000  0.96119  0.00000
E81   E   0.25688  0.19529  0.85040
E82   E   0.25688  0.30471  0.35040
E83   E   0.25688  0.69529  0.14960
E84   E   0.25688  0.80471  0.64960
E85   E   0.28881  0.00000  0.25000
E86   E   0.28881  0.50000  0.75000
E87   E   0.29569  0.15648  0.29783
E88   E   0.29569  0.34352  0.79783
E89   E   0.29569  0.65648  0.70217
E90   E   0.29569  0.84352  0.20217
E91   E   0.29783  0.20431  0.65648
E92   E   0.29783  0.29569  0.15648
E93   E   0.29783  0.70431  0.34352
E94   E   0.29783  0.79569  0.84352
E95   E   0.30471  0.14960  0.75688
E96   E   0.30471  0.35040  0.25688
E97   E   0.30471  0.64960  0.24312
E98   E   0.30471  0.85040  0.74312
E99   E   0.34352  0.20217  0.20431
E100  E   0.34352  0.29783  0.70431
E101  E   0.34352  0.70217  0.79569
E102  E   0.34352  0.79783  0.29569
E103  E   0.35040  0.24312  0.80471
E104  E   0.35040  0.25688  0.30471
E105  E   0.35040  0.74312  0.19529
E106  E   0.35040  0.75688  0.69529
E107  E   0.36812  0.12500  0.11812
E108  E   0.36812  0.37500  0.61812
E109  E   0.36812  0.62500  0.88188
E110  E   0.36812  0.87500  0.38188
E111  E   0.37500  0.11812  0.63188
E112  E   0.37500  0.38188  0.13188
E113  E   0.37500  0.61812  0.36812
E114  E   0.37500  0.88188  0.86812
E115  E   0.38188  0.13188  0.37500
E116  E   0.38188  0.36812  0.87500
E117  E   0.38188  0.63188  0.62500
E118  E   0.38188  0.86812  0.12500
E119  E   0.39960  0.05471  0.99312
E120  E   0.39960  0.44529  0.49312
E121  E   0.39960  0.55471  0.00688
E122  E   0.39960  0.94529  0.50688
E123  E   0.40648  0.04569  0.45217
E124  E   0.40648  0.45431  0.95217
E125  E   0.40648  0.54569  0.54783
E126  E   0.40648  0.95431  0.04783
E127  E   0.44529  0.00688  0.89960
E128  E   0.44529  0.49312  0.39960
E129  E   0.44529  0.50688  0.10040
E130  E   0.44529  0.99312  0.60040
E131  E   0.45217  0.09352  0.54569
E132  E   0.45217  0.40648  0.04569
E133  E   0.45217  0.59352  0.45431
E134  E   0.45217  0.90648  0.95431
E135  E   0.45431  0.04783  0.09352
E136  E   0.45431  0.45217  0.59352
E137  E   0.45431  0.54783  0.90648
E138  E   0.45431  0.95217  0.40648
E139  E   0.46119  0.00000  0.25000
E140  E   0.46119  0.50000  0.75000
E141  E   0.49312  0.10040  0.94529
E142  E   0.49312  0.39960  0.44529
E143  E   0.49312  0.60040  0.05471
E144  E   0.49312  0.89960  0.55471
E145  E   0.50000  0.25000  0.03881
E146  E   0.50000  0.25000  0.21119
E147  E   0.50000  0.25000  0.53881
E148  E   0.50000  0.25000  0.71119
E149  E   0.50000  0.75000  0.28881
E150  E   0.50000  0.75000  0.46119
E151  E   0.50000  0.75000  0.78881
E152  E   0.50000  0.75000  0.96119
E153  E   0.50688  0.10040  0.44529
E154  E   0.50688  0.39960  0.94529
E155  E   0.50688  0.60040  0.55471
E156  E   0.50688  0.89960  0.05471
E157  E   0.53881  0.00000  0.75000
E158  E   0.53881  0.50000  0.25000
E159  E   0.54569  0.04783  0.59352
E160  E   0.54569  0.45217  0.09352
E161  E   0.54569  0.54783  0.40648
E162  E   0.54569  0.95217  0.90648
E163  E   0.54783  0.09352  0.04569
E164  E   0.54783  0.40648  0.54569
E165  E   0.54783  0.59352  0.95431
E166  E   0.54783  0.90648  0.45431
E167  E   0.55471  0.00688  0.39960
E168  E   0.55471  0.49312  0.89960
E169  E   0.55471  0.50688  0.60040
E170  E   0.55471  0.99312  0.10040
E171  E   0.59352  0.04569  0.95217
E172  E   0.59352  0.45431  0.45217
E173  E   0.59352  0.54569  0.04783
E174  E   0.59352  0.95431  0.54783
E175  E   0.60040  0.05471  0.49312
E176  E   0.60040  0.44529  0.99312
E177  E   0.60040  0.55471  0.50688
E178  E   0.60040  0.94529  0.00688
E179  E   0.61812  0.13188  0.87500
E180  E   0.61812  0.36812  0.37500
E181  E   0.61812  0.63188  0.12500
E182  E   0.61812  0.86812  0.62500
E183  E   0.62500  0.11812  0.13188
E184  E   0.62500  0.38188  0.63188
E185  E   0.62500  0.61812  0.86812
E186  E   0.62500  0.88188  0.36812
E187  E   0.63188  0.12500  0.61812
E188  E   0.63188  0.37500  0.11812
E189  E   0.63188  0.62500  0.38188
E190  E   0.63188  0.87500  0.88188
E191  E   0.64960  0.24312  0.30471
E192  E   0.64960  0.25688  0.80471
E193  E   0.64960  0.74312  0.69529
E194  E   0.64960  0.75688  0.19529
E195  E   0.65648  0.20217  0.70431
E196  E   0.65648  0.29783  0.20431
E197  E   0.65648  0.70217  0.29569
E198  E   0.65648  0.79783  0.79569
E199  E   0.69529  0.14960  0.25688
E200  E   0.69529  0.35040  0.75688
E201  E   0.69529  0.64960  0.74312
E202  E   0.69529  0.85040  0.24312
E203  E   0.70217  0.20431  0.15648
E204  E   0.70217  0.29569  0.65648
E205  E   0.70217  0.70431  0.84352
E206  E   0.70217  0.79569  0.34352
E207  E   0.70431  0.15648  0.79783
E208  E   0.70431  0.34352  0.29783
E209  E   0.70431  0.65648  0.20217
E210  E   0.70431  0.84352  0.70217
E211  E   0.71119  0.00000  0.75000
E212  E   0.71119  0.50000  0.25000
E213  E   0.74312  0.19529  0.35040
E214  E   0.74312  0.30471  0.85040
E215  E   0.74312  0.69529  0.64960
E216  E   0.74312  0.80471  0.14960
E217  E   0.75000  0.03881  0.00000
E218  E   0.75000  0.21119  0.00000
E219  E   0.75000  0.28881  0.50000
E220  E   0.75000  0.46119  0.50000
E221  E   0.75000  0.53881  0.00000
E222  E   0.75000  0.71119  0.00000
E223  E   0.75000  0.78881  0.50000
E224  E   0.75000  0.96119  0.50000
E225  E   0.75688  0.19529  0.64960
E226  E   0.75688  0.30471  0.14960
E227  E   0.75688  0.69529  0.35040
E228  E   0.75688  0.80471  0.85040
E229  E   0.78881  0.00000  0.25000
E230  E   0.78881  0.50000  0.75000
E231  E   0.79569  0.15648  0.20217
E232  E   0.79569  0.34352  0.70217
E233  E   0.79569  0.65648  0.79783
E234  E   0.79569  0.84352  0.29783
E235  E   0.79783  0.20431  0.84352
E236  E   0.79783  0.29569  0.34352
E237  E   0.79783  0.70431  0.15648
E238  E   0.79783  0.79569  0.65648
E239  E   0.80471  0.14960  0.74312
E240  E   0.80471  0.35040  0.24312
E241  E   0.80471  0.64960  0.25688
E242  E   0.80471  0.85040  0.75688
E243  E   0.84352  0.20217  0.29569
E244  E   0.84352  0.29783  0.79569
E245  E   0.84352  0.70217  0.70431
E246  E   0.84352  0.79783  0.20431
E247  E   0.85040  0.24312  0.69529
E248  E   0.85040  0.25688  0.19529
E249  E   0.85040  0.74312  0.30471
E250  E   0.85040  0.75688  0.80471
E251  E   0.86812  0.12500  0.38188
E252  E   0.86812  0.37500  0.88188
E253  E   0.86812  0.62500  0.61812
E254  E   0.86812  0.87500  0.11812
E255  E   0.87500  0.11812  0.86812
E256  E   0.87500  0.38188  0.36812
E257  E   0.87500  0.61812  0.13188
E258  E   0.87500  0.88188  0.63188
E259  E   0.88188  0.13188  0.12500
E260  E   0.88188  0.36812  0.62500
E261  E   0.88188  0.63188  0.87500
E262  E   0.88188  0.86812  0.37500
E263  E   0.89960  0.05471  0.50688
E264  E   0.89960  0.44529  0.00688
E265  E   0.89960  0.55471  0.49312
E266  E   0.89960  0.94529  0.99312
E267  E   0.90648  0.04569  0.04783
E268  E   0.90648  0.45431  0.54783
E269  E   0.90648  0.54569  0.95217
E270  E   0.90648  0.95431  0.45217
E271  E   0.94529  0.00688  0.60040
E272  E   0.94529  0.49312  0.10040
E273  E   0.94529  0.50688  0.39960
E274  E   0.94529  0.99312  0.89960
E275  E   0.95217  0.09352  0.95431
E276  E   0.95217  0.40648  0.45431
E277  E   0.95217  0.59352  0.04569
E278  E   0.95217  0.90648  0.54569
E279  E   0.95431  0.04783  0.40648
E280  E   0.95431  0.45217  0.90648
E281  E   0.95431  0.54783  0.59352
E282  E   0.95431  0.95217  0.09352
E283  E   0.96119  0.00000  0.25000
E284  E   0.96119  0.50000  0.75000
E285  E   0.99312  0.10040  0.55471
E286  E   0.99312  0.39960  0.05471
E287  E   0.99312  0.60040  0.44529
E288  E   0.99312  0.89960  0.94529
loop_
