data_tbo_Fm-3m  hall_number: 523, V_con: 4, EC_con: 3
_audit_creation_date              2025-03-05
_audit_creation_method            'MOFbuilder_1.0'
_symmetry_space_group_name_H-M    'P1'
_symmetry_Int_Tables_number       1
_symmetry_cell_setting            triclinic
loop_
_symmetry_equiv_pos_as_xyz
  x,y,z
_cell_length_a                    48.9898
_cell_length_b                    48.9898
_cell_length_c                    48.9898
_cell_angle_alpha                 90.0
_cell_angle_beta                  90.0
_cell_angle_gamma                 90.0
loop_
_atom_site_label
_atom_site_type_symbol
_atom_site_fract_x
_atom_site_fract_y
_atom_site_fract_z
V1    V   0.00000  0.25000  0.25000
V2    V   0.00000  0.25000  0.75000
V3    V   0.00000  0.75000  0.25000
V4    V   0.00000  0.75000  0.75000
V5    V   0.25000  0.00000  0.25000
V6    V   0.25000  0.00000  0.75000
V7    V   0.25000  0.25000  0.00000
V8    V   0.25000  0.25000  0.50000
V9    V   0.25000  0.50000  0.25000
V10   V   0.25000  0.50000  0.75000
V11   V   0.25000  0.75000  0.00000
V12   V   0.25000  0.75000  0.50000
V13   V   0.50000  0.25000  0.25000
V14   V   0.50000  0.25000  0.75000
V15   V   0.50000  0.75000  0.25000
V16   V   0.50000  0.75000  0.75000
V17   V   0.75000  0.00000  0.25000
V18   V   0.75000  0.00000  0.75000
V19   V   0.75000  0.25000  0.00000
V20   V   0.75000  0.25000  0.50000
V21   V   0.75000  0.50000  0.25000
V22   V   0.75000  0.50000  0.75000
V23   V   0.75000  0.75000  0.00000
V24   V   0.75000  0.75000  0.50000
EC1    EC   0.16667  0.16667  0.16667
EC2    EC   0.16667  0.16667  0.83333
EC3    EC   0.16667  0.33333  0.33333
EC4    EC   0.16667  0.33333  0.66667
EC5    EC   0.16667  0.66667  0.33333
EC6    EC   0.16667  0.66667  0.66667
EC7    EC   0.16667  0.83333  0.16667
EC8    EC   0.16667  0.83333  0.83333
EC9    EC   0.33333  0.16667  0.33333
EC10   EC   0.33333  0.16667  0.66667
EC11   EC   0.33333  0.33333  0.16667
EC12   EC   0.33333  0.33333  0.83333
EC13   EC   0.33333  0.66667  0.16667
EC14   EC   0.33333  0.66667  0.83333
EC15   EC   0.33333  0.83333  0.33333
EC16   EC   0.33333  0.83333  0.66667
EC17   EC   0.66667  0.16667  0.33333
EC18   EC   0.66667  0.16667  0.66667
EC19   EC   0.66667  0.33333  0.16667
EC20   EC   0.66667  0.33333  0.83333
EC21   EC   0.66667  0.66667  0.16667
EC22   EC   0.66667  0.66667  0.83333
EC23   EC   0.66667  0.83333  0.33333
EC24   EC   0.66667  0.83333  0.66667
EC25   EC   0.83333  0.16667  0.16667
EC26   EC   0.83333  0.16667  0.83333
EC27   EC   0.83333  0.33333  0.33333
EC28   EC   0.83333  0.33333  0.66667
EC29   EC   0.83333  0.66667  0.33333
EC30   EC   0.83333  0.66667  0.66667
EC31   EC   0.83333  0.83333  0.16667
EC32   EC   0.83333  0.83333  0.83333
E1    E   0.08334  0.20834  0.20834
E2    E   0.08334  0.20834  0.79166
E3    E   0.08334  0.29166  0.29166
E4    E   0.08334  0.29166  0.70834
E5    E   0.08334  0.70834  0.29166
E6    E   0.08334  0.70834  0.70834
E7    E   0.08334  0.79166  0.20834
E8    E   0.08334  0.79166  0.79166
E9    E   0.20834  0.08334  0.20834
E10   E   0.20834  0.08334  0.79166
E11   E   0.20834  0.20834  0.08334
E12   E   0.20834  0.20834  0.91666
E13   E   0.20834  0.29166  0.41666
E14   E   0.20834  0.29166  0.58334
E15   E   0.20834  0.41666  0.29166
E16   E   0.20834  0.41666  0.70834
E17   E   0.20834  0.58334  0.29166
E18   E   0.20834  0.58334  0.70834
E19   E   0.20834  0.70834  0.41666
E20   E   0.20834  0.70834  0.58334
E21   E   0.20834  0.79166  0.08334
E22   E   0.20834  0.79166  0.91666
E23   E   0.20834  0.91666  0.20834
E24   E   0.20834  0.91666  0.79166
E25   E   0.29166  0.08334  0.29166
E26   E   0.29166  0.08334  0.70834
E27   E   0.29166  0.20834  0.41666
E28   E   0.29166  0.20834  0.58334
E29   E   0.29166  0.29166  0.08334
E30   E   0.29166  0.29166  0.91666
E31   E   0.29166  0.41666  0.20834
E32   E   0.29166  0.41666  0.79166
E33   E   0.29166  0.58334  0.20834
E34   E   0.29166  0.58334  0.79166
E35   E   0.29166  0.70834  0.08334
E36   E   0.29166  0.70834  0.91666
E37   E   0.29166  0.79166  0.41666
E38   E   0.29166  0.79166  0.58334
E39   E   0.29166  0.91666  0.29166
E40   E   0.29166  0.91666  0.70834
E41   E   0.41666  0.20834  0.29166
E42   E   0.41666  0.20834  0.70834
E43   E   0.41666  0.29166  0.20834
E44   E   0.41666  0.29166  0.79166
E45   E   0.41666  0.70834  0.20834
E46   E   0.41666  0.70834  0.79166
E47   E   0.41666  0.79166  0.29166
E48   E   0.41666  0.79166  0.70834
E49   E   0.58334  0.20834  0.29166
E50   E   0.58334  0.20834  0.70834
E51   E   0.58334  0.29166  0.20834
E52   E   0.58334  0.29166  0.79166
E53   E   0.58334  0.70834  0.20834
E54   E   0.58334  0.70834  0.79166
E55   E   0.58334  0.79166  0.29166
E56   E   0.58334  0.79166  0.70834
E57   E   0.70834  0.08334  0.29166
E58   E   0.70834  0.08334  0.70834
E59   E   0.70834  0.20834  0.41666
E60   E   0.70834  0.20834  0.58334
E61   E   0.70834  0.29166  0.08334
E62   E   0.70834  0.29166  0.91666
E63   E   0.70834  0.41666  0.20834
E64   E   0.70834  0.41666  0.79166
E65   E   0.70834  0.58334  0.20834
E66   E   0.70834  0.58334  0.79166
E67   E   0.70834  0.70834  0.08334
E68   E   0.70834  0.70834  0.91666
E69   E   0.70834  0.79166  0.41666
E70   E   0.70834  0.79166  0.58334
E71   E   0.70834  0.91666  0.29166
E72   E   0.70834  0.91666  0.70834
E73   E   0.79166  0.08334  0.20834
E74   E   0.79166  0.08334  0.79166
E75   E   0.79166  0.20834  0.08334
E76   E   0.79166  0.20834  0.91666
E77   E   0.79166  0.29166  0.41666
E78   E   0.79166  0.29166  0.58334
E79   E   0.79166  0.41666  0.29166
E80   E   0.79166  0.41666  0.70834
E81   E   0.79166  0.58334  0.29166
E82   E   0.79166  0.58334  0.70834
E83   E   0.79166  0.70834  0.41666
E84   E   0.79166  0.70834  0.58334
E85   E   0.79166  0.79166  0.08334
E86   E   0.79166  0.79166  0.91666
E87   E   0.79166  0.91666  0.20834
E88   E   0.79166  0.91666  0.79166
E89   E   0.91666  0.20834  0.20834
E90   E   0.91666  0.20834  0.79166
E91   E   0.91666  0.29166  0.29166
E92   E   0.91666  0.29166  0.70834
E93   E   0.91666  0.70834  0.29166
E94   E   0.91666  0.70834  0.70834
E95   E   0.91666  0.79166  0.20834
E96   E   0.91666  0.79166  0.79166
loop_
