data_ten_I23  hall_number: 491, V_con: 4
_audit_creation_date              2025-03-05
_audit_creation_method            'MOFbuilder_1.0'
_symmetry_space_group_name_H-M    'P1'
_symmetry_Int_Tables_number       1
_symmetry_cell_setting            triclinic
loop_
_symmetry_equiv_pos_as_xyz
  x,y,z
_cell_length_a                    16.8485
_cell_length_b                    16.8485
_cell_length_c                    16.8485
_cell_angle_alpha                 90.0
_cell_angle_beta                  90.0
_cell_angle_gamma                 90.0
loop_
_atom_site_label
_atom_site_type_symbol
_atom_site_fract_x
_atom_site_fract_y
_atom_site_fract_z
V1    V   0.15990  0.25000  0.29517
V2    V   0.15990  0.75000  0.70483
V3    V   0.20483  0.34010  0.75000
V4    V   0.20483  0.65990  0.25000
V5    V   0.25000  0.20483  0.65990
V6    V   0.25000  0.29517  0.15990
V7    V   0.25000  0.70483  0.84010
V8    V   0.25000  0.79517  0.34010
V9    V   0.29517  0.15990  0.25000
V10   V   0.29517  0.84010  0.75000
V11   V   0.34010  0.25000  0.79517
V12   V   0.34010  0.75000  0.20483
V13   V   0.65990  0.25000  0.20483
V14   V   0.65990  0.75000  0.79517
V15   V   0.70483  0.15990  0.75000
V16   V   0.70483  0.84010  0.25000
V17   V   0.75000  0.20483  0.34010
V18   V   0.75000  0.29517  0.84010
V19   V   0.75000  0.70483  0.15990
V20   V   0.75000  0.79517  0.65990
V21   V   0.79517  0.34010  0.25000
V22   V   0.79517  0.65990  0.75000
V23   V   0.84010  0.25000  0.70483
V24   V   0.84010  0.75000  0.29517
E1    E   0.00000  0.00000  0.29517
E2    E   0.00000  0.00000  0.70483
E3    E   0.00000  0.20483  0.50000
E4    E   0.00000  0.29517  0.00000
E5    E   0.00000  0.50000  0.29517
E6    E   0.00000  0.50000  0.70483
E7    E   0.00000  0.70483  0.00000
E8    E   0.00000  0.79517  0.50000
E9    E   0.04505  0.27259  0.81764
E10   E   0.04505  0.72741  0.18236
E11   E   0.18236  0.04505  0.72741
E12   E   0.18236  0.95495  0.27259
E13   E   0.20483  0.50000  0.00000
E14   E   0.20483  0.50000  0.50000
E15   E   0.22741  0.31764  0.45495
E16   E   0.22741  0.68236  0.54505
E17   E   0.27259  0.18236  0.95495
E18   E   0.27259  0.81764  0.04505
E19   E   0.29517  0.00000  0.00000
E20   E   0.29517  0.00000  0.50000
E21   E   0.31764  0.45495  0.22741
E22   E   0.31764  0.54505  0.77259
E23   E   0.45495  0.22741  0.31764
E24   E   0.45495  0.77259  0.68236
E25   E   0.50000  0.00000  0.20483
E26   E   0.50000  0.00000  0.79517
E27   E   0.50000  0.20483  0.50000
E28   E   0.50000  0.29517  0.00000
E29   E   0.50000  0.50000  0.20483
E30   E   0.50000  0.50000  0.79517
E31   E   0.50000  0.70483  0.00000
E32   E   0.50000  0.79517  0.50000
E33   E   0.54505  0.22741  0.68236
E34   E   0.54505  0.77259  0.31764
E35   E   0.68236  0.45495  0.77259
E36   E   0.68236  0.54505  0.22741
E37   E   0.70483  0.00000  0.00000
E38   E   0.70483  0.00000  0.50000
E39   E   0.72741  0.18236  0.04505
E40   E   0.72741  0.81764  0.95495
E41   E   0.77259  0.31764  0.54505
E42   E   0.77259  0.68236  0.45495
E43   E   0.79517  0.50000  0.00000
E44   E   0.79517  0.50000  0.50000
E45   E   0.81764  0.04505  0.27259
E46   E   0.81764  0.95495  0.72741
E47   E   0.95495  0.27259  0.18236
E48   E   0.95495  0.72741  0.81764
loop_
