data_tfg_Pm-3m  hall_number: 517, V_con: 4, EC_con: 3
_audit_creation_date              2025-03-05
_audit_creation_method            'MOFbuilder_1.0'
_symmetry_space_group_name_H-M    'P1'
_symmetry_Int_Tables_number       1
_symmetry_cell_setting            triclinic
loop_
_symmetry_equiv_pos_as_xyz
  x,y,z
_cell_length_a                    34.4949
_cell_length_b                    34.4949
_cell_length_c                    34.4949
_cell_angle_alpha                 90.0
_cell_angle_beta                  90.0
_cell_angle_gamma                 90.0
loop_
_atom_site_label
_atom_site_type_symbol
_atom_site_fract_x
_atom_site_fract_y
_atom_site_fract_z
V1    V   0.14495  0.14495  0.50000
V2    V   0.14495  0.50000  0.14495
V3    V   0.14495  0.50000  0.85505
V4    V   0.14495  0.85505  0.50000
V5    V   0.50000  0.14495  0.14495
V6    V   0.50000  0.14495  0.85505
V7    V   0.50000  0.85505  0.14495
V8    V   0.50000  0.85505  0.85505
V9    V   0.85505  0.14495  0.50000
V10   V   0.85505  0.50000  0.14495
V11   V   0.85505  0.50000  0.85505
V12   V   0.85505  0.85505  0.50000
EC1    EC   0.26333  0.26333  0.26333
EC2    EC   0.26333  0.26333  0.73667
EC3    EC   0.26333  0.73667  0.26333
EC4    EC   0.26333  0.73667  0.73667
EC5    EC   0.73667  0.26333  0.26333
EC6    EC   0.73667  0.26333  0.73667
EC7    EC   0.73667  0.73667  0.26333
EC8    EC   0.73667  0.73667  0.73667
E1    E   0.00000  0.14495  0.50000
E2    E   0.00000  0.50000  0.14495
E3    E   0.00000  0.50000  0.85505
E4    E   0.00000  0.85505  0.50000
E5    E   0.14495  0.00000  0.50000
E6    E   0.14495  0.50000  0.00000
E7    E   0.20414  0.20414  0.38167
E8    E   0.20414  0.20414  0.61833
E9    E   0.20414  0.38167  0.20414
E10   E   0.20414  0.38167  0.79586
E11   E   0.20414  0.61833  0.20414
E12   E   0.20414  0.61833  0.79586
E13   E   0.20414  0.79586  0.38167
E14   E   0.20414  0.79586  0.61833
E15   E   0.38167  0.20414  0.20414
E16   E   0.38167  0.20414  0.79586
E17   E   0.38167  0.79586  0.20414
E18   E   0.38167  0.79586  0.79586
E19   E   0.50000  0.00000  0.14495
E20   E   0.50000  0.00000  0.85505
E21   E   0.50000  0.14495  0.00000
E22   E   0.50000  0.85505  0.00000
E23   E   0.61833  0.20414  0.20414
E24   E   0.61833  0.20414  0.79586
E25   E   0.61833  0.79586  0.20414
E26   E   0.61833  0.79586  0.79586
E27   E   0.79586  0.20414  0.38167
E28   E   0.79586  0.20414  0.61833
E29   E   0.79586  0.38167  0.20414
E30   E   0.79586  0.38167  0.79586
E31   E   0.79586  0.61833  0.20414
E32   E   0.79586  0.61833  0.79586
E33   E   0.79586  0.79586  0.38167
E34   E   0.79586  0.79586  0.61833
E35   E   0.85505  0.00000  0.50000
E36   E   0.85505  0.50000  0.00000
loop_
