data_tfh_Im-3  hall_number: 500, V_con: 4, EC_con: 3
_audit_creation_date              2025-03-05
_audit_creation_method            'MOFbuilder_1.0'
_symmetry_space_group_name_H-M    'P1'
_symmetry_Int_Tables_number       1
_symmetry_cell_setting            triclinic
loop_
_symmetry_equiv_pos_as_xyz
  x,y,z
_cell_length_a                    48.0037
_cell_length_b                    48.0037
_cell_length_c                    48.0037
_cell_angle_alpha                 90.0
_cell_angle_beta                  90.0
_cell_angle_gamma                 90.0
loop_
_atom_site_label
_atom_site_type_symbol
_atom_site_fract_x
_atom_site_fract_y
_atom_site_fract_z
V1    V   0.18986  0.18986  0.18986
V2    V   0.18986  0.18986  0.81014
V3    V   0.18986  0.81014  0.18986
V4    V   0.18986  0.81014  0.81014
V5    V   0.31014  0.31014  0.31014
V6    V   0.31014  0.31014  0.68986
V7    V   0.31014  0.68986  0.31014
V8    V   0.31014  0.68986  0.68986
V9    V   0.68986  0.31014  0.31014
V10   V   0.68986  0.31014  0.68986
V11   V   0.68986  0.68986  0.31014
V12   V   0.68986  0.68986  0.68986
V13   V   0.81014  0.18986  0.18986
V14   V   0.81014  0.18986  0.81014
V15   V   0.81014  0.81014  0.18986
V16   V   0.81014  0.81014  0.81014
EC1    EC   0.00000  0.10416  0.18825
EC2    EC   0.00000  0.10416  0.81175
EC3    EC   0.00000  0.89584  0.18825
EC4    EC   0.00000  0.89584  0.81175
EC5    EC   0.10416  0.18825  0.00000
EC6    EC   0.10416  0.81175  0.00000
EC7    EC   0.18825  0.00000  0.10416
EC8    EC   0.18825  0.00000  0.89584
EC9    EC   0.31175  0.50000  0.39584
EC10   EC   0.31175  0.50000  0.60416
EC11   EC   0.39584  0.31175  0.50000
EC12   EC   0.39584  0.68825  0.50000
EC13   EC   0.50000  0.39584  0.31175
EC14   EC   0.50000  0.39584  0.68825
EC15   EC   0.50000  0.60416  0.31175
EC16   EC   0.50000  0.60416  0.68825
EC17   EC   0.60416  0.31175  0.50000
EC18   EC   0.60416  0.68825  0.50000
EC19   EC   0.68825  0.50000  0.39584
EC20   EC   0.68825  0.50000  0.60416
EC21   EC   0.81175  0.00000  0.10416
EC22   EC   0.81175  0.00000  0.89584
EC23   EC   0.89584  0.18825  0.00000
EC24   EC   0.89584  0.81175  0.00000
E1    E   0.00000  0.00000  0.18825
E2    E   0.00000  0.00000  0.81175
E3    E   0.00000  0.18825  0.00000
E4    E   0.00000  0.81175  0.00000
E5    E   0.09493  0.14701  0.18906
E6    E   0.09493  0.14701  0.81094
E7    E   0.09493  0.85299  0.18906
E8    E   0.09493  0.85299  0.81094
E9    E   0.14701  0.18906  0.09493
E10   E   0.14701  0.18906  0.90507
E11   E   0.14701  0.81094  0.09493
E12   E   0.14701  0.81094  0.90507
E13   E   0.18825  0.00000  0.00000
E14   E   0.18906  0.09493  0.14701
E15   E   0.18906  0.09493  0.85299
E16   E   0.18906  0.90507  0.14701
E17   E   0.18906  0.90507  0.85299
E18   E   0.25000  0.25000  0.25000
E19   E   0.25000  0.25000  0.75000
E20   E   0.25000  0.75000  0.25000
E21   E   0.25000  0.75000  0.75000
E22   E   0.31094  0.40507  0.35299
E23   E   0.31094  0.40507  0.64701
E24   E   0.31094  0.59493  0.35299
E25   E   0.31094  0.59493  0.64701
E26   E   0.31175  0.50000  0.50000
E27   E   0.35299  0.31094  0.40507
E28   E   0.35299  0.31094  0.59493
E29   E   0.35299  0.68906  0.40507
E30   E   0.35299  0.68906  0.59493
E31   E   0.40507  0.35299  0.31094
E32   E   0.40507  0.35299  0.68906
E33   E   0.40507  0.64701  0.31094
E34   E   0.40507  0.64701  0.68906
E35   E   0.50000  0.31175  0.50000
E36   E   0.50000  0.50000  0.31175
E37   E   0.50000  0.50000  0.68825
E38   E   0.50000  0.68825  0.50000
E39   E   0.59493  0.35299  0.31094
E40   E   0.59493  0.35299  0.68906
E41   E   0.59493  0.64701  0.31094
E42   E   0.59493  0.64701  0.68906
E43   E   0.64701  0.31094  0.40507
E44   E   0.64701  0.31094  0.59493
E45   E   0.64701  0.68906  0.40507
E46   E   0.64701  0.68906  0.59493
E47   E   0.68825  0.50000  0.50000
E48   E   0.68906  0.40507  0.35299
E49   E   0.68906  0.40507  0.64701
E50   E   0.68906  0.59493  0.35299
E51   E   0.68906  0.59493  0.64701
E52   E   0.75000  0.25000  0.25000
E53   E   0.75000  0.25000  0.75000
E54   E   0.75000  0.75000  0.25000
E55   E   0.75000  0.75000  0.75000
E56   E   0.81094  0.09493  0.14701
E57   E   0.81094  0.09493  0.85299
E58   E   0.81094  0.90507  0.14701
E59   E   0.81094  0.90507  0.85299
E60   E   0.81175  0.00000  0.00000
E61   E   0.85299  0.18906  0.09493
E62   E   0.85299  0.18906  0.90507
E63   E   0.85299  0.81094  0.09493
E64   E   0.85299  0.81094  0.90507
E65   E   0.90507  0.14701  0.18906
E66   E   0.90507  0.14701  0.81094
E67   E   0.90507  0.85299  0.18906
E68   E   0.90507  0.85299  0.81094
loop_
