data_tfo_Fmmm  hall_number: 334, V_con: 4, EC_con: 3
_audit_creation_date              2025-03-05
_audit_creation_method            'MOFbuilder_1.0'
_symmetry_space_group_name_H-M    'P1'
_symmetry_Int_Tables_number       1
_symmetry_cell_setting            triclinic
loop_
_symmetry_equiv_pos_as_xyz
  x,y,z
_cell_length_a                    19.9999
_cell_length_b                    43.382
_cell_length_c                    32.4544
_cell_angle_alpha                 90.0
_cell_angle_beta                  90.0
_cell_angle_gamma                 90.0
loop_
_atom_site_label
_atom_site_type_symbol
_atom_site_fract_x
_atom_site_fract_y
_atom_site_fract_z
V1    V   0.00000  0.25000  0.25000
V2    V   0.00000  0.25000  0.75000
V3    V   0.00000  0.75000  0.25000
V4    V   0.00000  0.75000  0.75000
V5    V   0.50000  0.25000  0.25000
V6    V   0.50000  0.25000  0.75000
V7    V   0.50000  0.75000  0.25000
V8    V   0.50000  0.75000  0.75000
EC1    EC   0.00000  0.11525  0.50000
EC2    EC   0.00000  0.38475  0.00000
EC3    EC   0.00000  0.61525  0.00000
EC4    EC   0.00000  0.88475  0.50000
EC5    EC   0.50000  0.11525  0.00000
EC6    EC   0.50000  0.38475  0.50000
EC7    EC   0.50000  0.61525  0.50000
EC8    EC   0.50000  0.88475  0.00000
E1    E   0.00000  0.00000  0.50000
E2    E   0.00000  0.18263  0.37500
E3    E   0.00000  0.18263  0.62500
E4    E   0.00000  0.31737  0.12500
E5    E   0.00000  0.31737  0.87500
E6    E   0.00000  0.50000  0.00000
E7    E   0.00000  0.68263  0.12500
E8    E   0.00000  0.68263  0.87500
E9    E   0.00000  0.81737  0.37500
E10   E   0.00000  0.81737  0.62500
E11   E   0.25000  0.25000  0.25000
E12   E   0.25000  0.25000  0.75000
E13   E   0.25000  0.75000  0.25000
E14   E   0.25000  0.75000  0.75000
E15   E   0.50000  0.00000  0.00000
E16   E   0.50000  0.18263  0.12500
E17   E   0.50000  0.18263  0.87500
E18   E   0.50000  0.31737  0.37500
E19   E   0.50000  0.31737  0.62500
E20   E   0.50000  0.50000  0.50000
E21   E   0.50000  0.68263  0.37500
E22   E   0.50000  0.68263  0.62500
E23   E   0.50000  0.81737  0.12500
E24   E   0.50000  0.81737  0.87500
E25   E   0.75000  0.25000  0.25000
E26   E   0.75000  0.25000  0.75000
E27   E   0.75000  0.75000  0.25000
E28   E   0.75000  0.75000  0.75000
loop_
