data_the-a_Pm-3m  hall_number: 517, V_con: 4, EC_con: 3
_audit_creation_date              2025-03-05
_audit_creation_method            'MOFbuilder_1.0'
_symmetry_space_group_name_H-M    'P1'
_symmetry_Int_Tables_number       1
_symmetry_cell_setting            triclinic
loop_
_symmetry_equiv_pos_as_xyz
  x,y,z
_cell_length_a                    58.637
_cell_length_b                    58.637
_cell_length_c                    58.637
_cell_angle_alpha                 90.0
_cell_angle_beta                  90.0
_cell_angle_gamma                 90.0
loop_
_atom_site_label
_atom_site_type_symbol
_atom_site_fract_x
_atom_site_fract_y
_atom_site_fract_z
V1    V   0.08527  0.41473  0.41473
V2    V   0.08527  0.41473  0.58527
V3    V   0.08527  0.58527  0.41473
V4    V   0.08527  0.58527  0.58527
V5    V   0.41473  0.08527  0.41473
V6    V   0.41473  0.08527  0.58527
V7    V   0.41473  0.41473  0.08527
V8    V   0.41473  0.41473  0.91473
V9    V   0.41473  0.58527  0.08527
V10   V   0.41473  0.58527  0.91473
V11   V   0.41473  0.91473  0.41473
V12   V   0.41473  0.91473  0.58527
V13   V   0.58527  0.08527  0.41473
V14   V   0.58527  0.08527  0.58527
V15   V   0.58527  0.41473  0.08527
V16   V   0.58527  0.41473  0.91473
V17   V   0.58527  0.58527  0.08527
V18   V   0.58527  0.58527  0.91473
V19   V   0.58527  0.91473  0.41473
V20   V   0.58527  0.91473  0.58527
V21   V   0.91473  0.41473  0.41473
V22   V   0.91473  0.41473  0.58527
V23   V   0.91473  0.58527  0.41473
V24   V   0.91473  0.58527  0.58527
EC1    EC   0.22484  0.34543  0.34543
EC2    EC   0.22484  0.34543  0.65457
EC3    EC   0.22484  0.65457  0.34543
EC4    EC   0.22484  0.65457  0.65457
EC5    EC   0.34543  0.22484  0.34543
EC6    EC   0.34543  0.22484  0.65457
EC7    EC   0.34543  0.34543  0.22484
EC8    EC   0.34543  0.34543  0.77516
EC9    EC   0.34543  0.65457  0.22484
EC10   EC   0.34543  0.65457  0.77516
EC11   EC   0.34543  0.77516  0.34543
EC12   EC   0.34543  0.77516  0.65457
EC13   EC   0.65457  0.22484  0.34543
EC14   EC   0.65457  0.22484  0.65457
EC15   EC   0.65457  0.34543  0.22484
EC16   EC   0.65457  0.34543  0.77516
EC17   EC   0.65457  0.65457  0.22484
EC18   EC   0.65457  0.65457  0.77516
EC19   EC   0.65457  0.77516  0.34543
EC20   EC   0.65457  0.77516  0.65457
EC21   EC   0.77516  0.34543  0.34543
EC22   EC   0.77516  0.34543  0.65457
EC23   EC   0.77516  0.65457  0.34543
EC24   EC   0.77516  0.65457  0.65457
E1    E   0.00000  0.41473  0.41473
E2    E   0.00000  0.41473  0.58527
E3    E   0.00000  0.58527  0.41473
E4    E   0.00000  0.58527  0.58527
E5    E   0.08527  0.41473  0.50000
E6    E   0.08527  0.50000  0.41473
E7    E   0.08527  0.50000  0.58527
E8    E   0.08527  0.58527  0.50000
E9    E   0.15506  0.38008  0.38008
E10   E   0.15506  0.38008  0.61992
E11   E   0.15506  0.61992  0.38008
E12   E   0.15506  0.61992  0.61992
E13   E   0.28514  0.28514  0.34543
E14   E   0.28514  0.28514  0.65457
E15   E   0.28514  0.34543  0.28514
E16   E   0.28514  0.34543  0.71486
E17   E   0.28514  0.65457  0.28514
E18   E   0.28514  0.65457  0.71486
E19   E   0.28514  0.71486  0.34543
E20   E   0.28514  0.71486  0.65457
E21   E   0.34543  0.28514  0.28514
E22   E   0.34543  0.28514  0.71486
E23   E   0.34543  0.71486  0.28514
E24   E   0.34543  0.71486  0.71486
E25   E   0.38008  0.15506  0.38008
E26   E   0.38008  0.15506  0.61992
E27   E   0.38008  0.38008  0.15506
E28   E   0.38008  0.38008  0.84494
E29   E   0.38008  0.61992  0.15506
E30   E   0.38008  0.61992  0.84494
E31   E   0.38008  0.84494  0.38008
E32   E   0.38008  0.84494  0.61992
E33   E   0.41473  0.00000  0.41473
E34   E   0.41473  0.00000  0.58527
E35   E   0.41473  0.08527  0.50000
E36   E   0.41473  0.41473  0.00000
E37   E   0.41473  0.50000  0.08527
E38   E   0.41473  0.50000  0.91473
E39   E   0.41473  0.58527  0.00000
E40   E   0.41473  0.91473  0.50000
E41   E   0.50000  0.08527  0.41473
E42   E   0.50000  0.08527  0.58527
E43   E   0.50000  0.41473  0.08527
E44   E   0.50000  0.41473  0.91473
E45   E   0.50000  0.58527  0.08527
E46   E   0.50000  0.58527  0.91473
E47   E   0.50000  0.91473  0.41473
E48   E   0.50000  0.91473  0.58527
E49   E   0.58527  0.00000  0.41473
E50   E   0.58527  0.00000  0.58527
E51   E   0.58527  0.08527  0.50000
E52   E   0.58527  0.41473  0.00000
E53   E   0.58527  0.50000  0.08527
E54   E   0.58527  0.50000  0.91473
E55   E   0.58527  0.58527  0.00000
E56   E   0.58527  0.91473  0.50000
E57   E   0.61992  0.15506  0.38008
E58   E   0.61992  0.15506  0.61992
E59   E   0.61992  0.38008  0.15506
E60   E   0.61992  0.38008  0.84494
E61   E   0.61992  0.61992  0.15506
E62   E   0.61992  0.61992  0.84494
E63   E   0.61992  0.84494  0.38008
E64   E   0.61992  0.84494  0.61992
E65   E   0.65457  0.28514  0.28514
E66   E   0.65457  0.28514  0.71486
E67   E   0.65457  0.71486  0.28514
E68   E   0.65457  0.71486  0.71486
E69   E   0.71486  0.28514  0.34543
E70   E   0.71486  0.28514  0.65457
E71   E   0.71486  0.34543  0.28514
E72   E   0.71486  0.34543  0.71486
E73   E   0.71486  0.65457  0.28514
E74   E   0.71486  0.65457  0.71486
E75   E   0.71486  0.71486  0.34543
E76   E   0.71486  0.71486  0.65457
E77   E   0.84494  0.38008  0.38008
E78   E   0.84494  0.38008  0.61992
E79   E   0.84494  0.61992  0.38008
E80   E   0.84494  0.61992  0.61992
E81   E   0.91473  0.41473  0.50000
E82   E   0.91473  0.50000  0.41473
E83   E   0.91473  0.50000  0.58527
E84   E   0.91473  0.58527  0.50000
loop_
