data_thh_I41/amd:2  hall_number: 427, V_con: 4, EC_con: 4
_audit_creation_date              2025-03-05
_audit_creation_method            'MOFbuilder_1.0'
_symmetry_space_group_name_H-M    'P1'
_symmetry_Int_Tables_number       1
_symmetry_cell_setting            triclinic
loop_
_symmetry_equiv_pos_as_xyz
  x,y,z
_cell_length_a                    33.4343
_cell_length_b                    33.4343
_cell_length_c                    88.8972
_cell_angle_alpha                 90.0
_cell_angle_beta                  90.0
_cell_angle_gamma                 90.0
loop_
_atom_site_label
_atom_site_type_symbol
_atom_site_fract_x
_atom_site_fract_y
_atom_site_fract_z
V1    V   0.14955  0.10045  0.04167
V2    V   0.14955  0.39955  0.04167
V3    V   0.14955  0.60045  0.95833
V4    V   0.14955  0.89955  0.95833
V5    V   0.14955  0.10045  0.70833
V6    V   0.14955  0.39955  0.70833
V7    V   0.14955  0.60045  0.29167
V8    V   0.14955  0.89955  0.29167
V9    V   0.35045  0.10045  0.79167
V10   V   0.35045  0.39955  0.79167
V11   V   0.35045  0.60045  0.20833
V12   V   0.35045  0.89955  0.20833
V13   V   0.35045  0.10045  0.45833
V14   V   0.35045  0.39955  0.45833
V15   V   0.35045  0.60045  0.54167
V16   V   0.35045  0.89955  0.54167
V17   V   0.64955  0.10045  0.45833
V18   V   0.64955  0.10045  0.79167
V19   V   0.64955  0.39955  0.79167
V20   V   0.64955  0.39955  0.45833
V21   V   0.64955  0.60045  0.20833
V22   V   0.64955  0.60045  0.54167
V23   V   0.64955  0.89955  0.20833
V24   V   0.64955  0.89955  0.54167
V25   V   0.85045  0.10045  0.04167
V26   V   0.85045  0.10045  0.70833
V27   V   0.85045  0.39955  0.70833
V28   V   0.85045  0.39955  0.04167
V29   V   0.85045  0.60045  0.29167
V30   V   0.85045  0.60045  0.95833
V31   V   0.85045  0.89955  0.29167
V32   V   0.85045  0.89955  0.95833
EC1    EC   0.14955  0.10045  0.87500
EC2    EC   0.14955  0.39955  0.87500
EC3    EC   0.14955  0.60045  0.12500
EC4    EC   0.14955  0.89955  0.12500
EC5    EC   0.14955  0.10045  0.87500
EC6    EC   0.14955  0.39955  0.87500
EC7    EC   0.14955  0.60045  0.12500
EC8    EC   0.14955  0.89955  0.12500
EC9    EC   0.35045  0.10045  0.62500
EC10   EC   0.35045  0.39955  0.62500
EC11   EC   0.35045  0.60045  0.37500
EC12   EC   0.35045  0.89955  0.37500
EC13   EC   0.35045  0.10045  0.62500
EC14   EC   0.35045  0.39955  0.62500
EC15   EC   0.35045  0.60045  0.37500
EC16   EC   0.35045  0.89955  0.37500
EC17   EC   0.64955  0.10045  0.62500
EC18   EC   0.64955  0.10045  0.62500
EC19   EC   0.64955  0.39955  0.62500
EC20   EC   0.64955  0.60045  0.37500
EC21   EC   0.64955  0.89955  0.37500
EC22   EC   0.85045  0.10045  0.87500
EC23   EC   0.85045  0.10045  0.87500
EC24   EC   0.85045  0.39955  0.87500
EC25   EC   0.85045  0.60045  0.12500
EC26   EC   0.85045  0.89955  0.12500
E1    E   0.00000  0.10045  0.04167
E2    E   0.00000  0.10045  0.70833
E3    E   0.00000  0.10045  0.87500
E4    E   0.00000  0.39955  0.70833
E5    E   0.00000  0.39955  0.87500
E6    E   0.00000  0.39955  0.04167
E7    E   0.00000  0.60045  0.12500
E8    E   0.00000  0.60045  0.29167
E9    E   0.00000  0.60045  0.95833
E10   E   0.00000  0.89955  0.12500
E11   E   0.00000  0.89955  0.29167
E12   E   0.00000  0.89955  0.95833
E13   E   0.14955  0.00000  0.00000
E14   E   0.14955  0.00000  0.08333
E15   E   0.14955  0.00000  0.91667
E16   E   0.14955  0.25000  0.04167
E17   E   0.14955  0.25000  0.87500
E18   E   0.14955  0.50000  0.00000
E19   E   0.14955  0.50000  0.08333
E20   E   0.14955  0.50000  0.91667
E21   E   0.14955  0.75000  0.12500
E22   E   0.14955  0.75000  0.95833
E23   E   0.14955  0.25000  0.70833
E24   E   0.14955  0.75000  0.29167
E25   E   0.25000  0.10045  0.66667
E26   E   0.25000  0.10045  0.75000
E27   E   0.25000  0.10045  0.83333
E28   E   0.25000  0.39955  0.66667
E29   E   0.25000  0.39955  0.75000
E30   E   0.25000  0.39955  0.83333
E31   E   0.25000  0.60045  0.16667
E32   E   0.25000  0.60045  0.25000
E33   E   0.25000  0.60045  0.33333
E34   E   0.25000  0.89955  0.16667
E35   E   0.25000  0.89955  0.25000
E36   E   0.25000  0.89955  0.33333
E37   E   0.35045  0.25000  0.79167
E38   E   0.35045  0.75000  0.20833
E39   E   0.35045  0.00000  0.41667
E40   E   0.35045  0.00000  0.50000
E41   E   0.35045  0.00000  0.58333
E42   E   0.35045  0.25000  0.45833
E43   E   0.35045  0.25000  0.62500
E44   E   0.35045  0.50000  0.41667
E45   E   0.35045  0.50000  0.50000
E46   E   0.35045  0.50000  0.58333
E47   E   0.35045  0.75000  0.37500
E48   E   0.35045  0.75000  0.54167
E49   E   0.50000  0.10045  0.45833
E50   E   0.50000  0.10045  0.62500
E51   E   0.50000  0.10045  0.79167
E52   E   0.50000  0.39955  0.62500
E53   E   0.50000  0.39955  0.79167
E54   E   0.50000  0.39955  0.45833
E55   E   0.50000  0.60045  0.20833
E56   E   0.50000  0.60045  0.37500
E57   E   0.50000  0.60045  0.54167
E58   E   0.50000  0.89955  0.20833
E59   E   0.50000  0.89955  0.37500
E60   E   0.50000  0.89955  0.54167
E61   E   0.64955  0.00000  0.41667
E62   E   0.64955  0.00000  0.50000
E63   E   0.64955  0.00000  0.58333
E64   E   0.64955  0.25000  0.45833
E65   E   0.64955  0.25000  0.62500
E66   E   0.64955  0.25000  0.79167
E67   E   0.64955  0.50000  0.41667
E68   E   0.64955  0.50000  0.50000
E69   E   0.64955  0.50000  0.58333
E70   E   0.64955  0.75000  0.20833
E71   E   0.64955  0.75000  0.37500
E72   E   0.64955  0.75000  0.54167
E73   E   0.75000  0.10045  0.66667
E74   E   0.75000  0.10045  0.75000
E75   E   0.75000  0.10045  0.83333
E76   E   0.75000  0.39955  0.66667
E77   E   0.75000  0.39955  0.75000
E78   E   0.75000  0.39955  0.83333
E79   E   0.75000  0.60045  0.16667
E80   E   0.75000  0.60045  0.25000
E81   E   0.75000  0.60045  0.33333
E82   E   0.75000  0.89955  0.16667
E83   E   0.75000  0.89955  0.25000
E84   E   0.75000  0.89955  0.33333
E85   E   0.85045  0.00000  0.00000
E86   E   0.85045  0.00000  0.08333
E87   E   0.85045  0.00000  0.91667
E88   E   0.85045  0.25000  0.04167
E89   E   0.85045  0.25000  0.70833
E90   E   0.85045  0.25000  0.87500
E91   E   0.85045  0.50000  0.00000
E92   E   0.85045  0.50000  0.08333
E93   E   0.85045  0.50000  0.91667
E94   E   0.85045  0.75000  0.12500
E95   E   0.85045  0.75000  0.29167
E96   E   0.85045  0.75000  0.95833
loop_
