data_thp-a_I-43d  hall_number: 516, V_con: 6, EC_con: 5
_audit_creation_date              2025-03-05
_audit_creation_method            'MOFbuilder_1.0'
_symmetry_space_group_name_H-M    'P1'
_symmetry_Int_Tables_number       1
_symmetry_cell_setting            triclinic
loop_
_symmetry_equiv_pos_as_xyz
  x,y,z
_cell_length_a                    54.8637
_cell_length_b                    54.8637
_cell_length_c                    54.8637
_cell_angle_alpha                 90.0
_cell_angle_beta                  90.0
_cell_angle_gamma                 90.0
loop_
_atom_site_label
_atom_site_type_symbol
_atom_site_fract_x
_atom_site_fract_y
_atom_site_fract_z
V1    V   0.08139  0.33473  0.83753
V2    V   0.08139  0.66527  0.66247
V3    V   0.08473  0.16861  0.91247
V4    V   0.08473  0.83139  0.58753
V5    V   0.08753  0.41527  0.16861
V6    V   0.08753  0.58473  0.33139
V7    V   0.16247  0.41861  0.33473
V8    V   0.16247  0.58139  0.16527
V9    V   0.16527  0.16247  0.58139
V10   V   0.16527  0.83753  0.91861
V11   V   0.16861  0.08753  0.41527
V12   V   0.16861  0.91247  0.08473
V13   V   0.33139  0.08753  0.58473
V14   V   0.33139  0.91247  0.91527
V15   V   0.33473  0.16247  0.41861
V16   V   0.33473  0.83753  0.08139
V17   V   0.33753  0.41861  0.66527
V18   V   0.33753  0.58139  0.83473
V19   V   0.41247  0.41527  0.83139
V20   V   0.41247  0.58473  0.66861
V21   V   0.41527  0.16861  0.08753
V22   V   0.41527  0.83139  0.41247
V23   V   0.41861  0.33473  0.16247
V24   V   0.41861  0.66527  0.33753
V25   V   0.58139  0.16527  0.16247
V26   V   0.58139  0.83473  0.33753
V27   V   0.58473  0.33139  0.08753
V28   V   0.58473  0.66861  0.41247
V29   V   0.58753  0.08473  0.83139
V30   V   0.58753  0.91527  0.66861
V31   V   0.66247  0.08139  0.66527
V32   V   0.66247  0.91861  0.83473
V33   V   0.66527  0.33753  0.41861
V34   V   0.66527  0.66247  0.08139
V35   V   0.66861  0.41247  0.58473
V36   V   0.66861  0.58753  0.91527
V37   V   0.83139  0.41247  0.41527
V38   V   0.83139  0.58753  0.08473
V39   V   0.83473  0.33753  0.58139
V40   V   0.83473  0.66247  0.91861
V41   V   0.83753  0.08139  0.33473
V42   V   0.83753  0.91861  0.16527
V43   V   0.91247  0.08473  0.16861
V44   V   0.91247  0.91527  0.33139
V45   V   0.91527  0.33139  0.91247
V46   V   0.91527  0.66861  0.58753
V47   V   0.91861  0.16527  0.83753
V48   V   0.91861  0.83473  0.66247
EC1    EC   0.01789  0.06313  0.31573
EC2    EC   0.01789  0.93687  0.18427
EC3    EC   0.06313  0.31573  0.01789
EC4    EC   0.06313  0.68427  0.48211
EC5    EC   0.06573  0.18687  0.73211
EC6    EC   0.06573  0.81313  0.76789
EC7    EC   0.18427  0.01789  0.93687
EC8    EC   0.18427  0.98211  0.56313
EC9    EC   0.18687  0.26789  0.43427
EC10   EC   0.18687  0.73211  0.06573
EC11   EC   0.23211  0.43427  0.81313
EC12   EC   0.23211  0.56573  0.68687
EC13   EC   0.26789  0.43427  0.18687
EC14   EC   0.26789  0.56573  0.31313
EC15   EC   0.31313  0.26789  0.56573
EC16   EC   0.31313  0.73211  0.93427
EC17   EC   0.31573  0.01789  0.06313
EC18   EC   0.31573  0.98211  0.43687
EC19   EC   0.43427  0.18687  0.26789
EC20   EC   0.43427  0.81313  0.23211
EC21   EC   0.43687  0.31573  0.98211
EC22   EC   0.43687  0.68427  0.51789
EC23   EC   0.48211  0.06313  0.68427
EC24   EC   0.48211  0.93687  0.81573
EC25   EC   0.51789  0.43687  0.68427
EC26   EC   0.51789  0.56313  0.81573
EC27   EC   0.56313  0.18427  0.98211
EC28   EC   0.56313  0.81573  0.51789
EC29   EC   0.56573  0.31313  0.26789
EC30   EC   0.56573  0.68687  0.23211
EC31   EC   0.68427  0.48211  0.06313
EC32   EC   0.68427  0.51789  0.43687
EC33   EC   0.68687  0.23211  0.56573
EC34   EC   0.68687  0.76789  0.93427
EC35   EC   0.73211  0.06573  0.18687
EC36   EC   0.73211  0.93427  0.31313
EC37   EC   0.76789  0.06573  0.81313
EC38   EC   0.76789  0.93427  0.68687
EC39   EC   0.81313  0.23211  0.43427
EC40   EC   0.81313  0.76789  0.06573
EC41   EC   0.81573  0.48211  0.93687
EC42   EC   0.81573  0.51789  0.56313
EC43   EC   0.93427  0.31313  0.73211
EC44   EC   0.93427  0.68687  0.76789
EC45   EC   0.93687  0.18427  0.01789
EC46   EC   0.93687  0.81573  0.48211
EC47   EC   0.98211  0.43687  0.31573
EC48   EC   0.98211  0.56313  0.18427
E1    E   0.00000  0.25000  0.01789
E2    E   0.00000  0.25000  0.73211
E3    E   0.00000  0.75000  0.48211
E4    E   0.00000  0.75000  0.76789
E5    E   0.00167  0.16694  0.87500
E6    E   0.00167  0.83306  0.62500
E7    E   0.00783  0.32393  0.78482
E8    E   0.00783  0.67607  0.71518
E9    E   0.01080  0.17644  0.96518
E10   E   0.01080  0.82356  0.53482
E11   E   0.01789  0.00000  0.25000
E12   E   0.03482  0.42607  0.24217
E13   E   0.03482  0.48920  0.17644
E14   E   0.03482  0.51080  0.32356
E15   E   0.03482  0.57393  0.25783
E16   E   0.07226  0.32523  0.92771
E17   E   0.07226  0.67477  0.57229
E18   E   0.07229  0.42774  0.32523
E19   E   0.07229  0.57226  0.17477
E20   E   0.07356  0.26080  0.78482
E21   E   0.07356  0.73920  0.71518
E22   E   0.07393  0.24217  0.96518
E23   E   0.07393  0.75783  0.53482
E24   E   0.07523  0.17774  0.82229
E25   E   0.07523  0.82226  0.67771
E26   E   0.07533  0.36550  0.09325
E27   E   0.07533  0.63450  0.40675
E28   E   0.08306  0.25167  0.87500
E29   E   0.08306  0.74833  0.62500
E30   E   0.09325  0.07533  0.36550
E31   E   0.09325  0.92467  0.13450
E32   E   0.11550  0.17467  0.65675
E33   E   0.11550  0.82533  0.84325
E34   E   0.12500  0.41694  0.25167
E35   E   0.12500  0.49833  0.16694
E36   E   0.12500  0.50167  0.33306
E37   E   0.12500  0.58306  0.24833
E38   E   0.13450  0.09325  0.92467
E39   E   0.13450  0.90675  0.57533
E40   E   0.15675  0.38450  0.82533
E41   E   0.15675  0.61550  0.67467
E42   E   0.16694  0.12500  0.49833
E43   E   0.16694  0.87500  0.00167
E44   E   0.17467  0.34325  0.38450
E45   E   0.17467  0.65675  0.11550
E46   E   0.17477  0.07229  0.57226
E47   E   0.17477  0.92771  0.92774
E48   E   0.17607  0.21518  0.50783
E49   E   0.17607  0.78482  0.99217
E50   E   0.17644  0.03482  0.48920
E51   E   0.17644  0.96518  0.01080
E52   E   0.17771  0.42477  0.17774
E53   E   0.17771  0.57523  0.32226
E54   E   0.17774  0.17771  0.42477
E55   E   0.17774  0.82229  0.07523
E56   E   0.21518  0.42644  0.26080
E57   E   0.21518  0.49217  0.32393
E58   E   0.21518  0.50783  0.17607
E59   E   0.21518  0.57356  0.23920
E60   E   0.23211  0.50000  0.75000
E61   E   0.23920  0.21518  0.57356
E62   E   0.23920  0.78482  0.92644
E63   E   0.24217  0.03482  0.42607
E64   E   0.24217  0.96518  0.07393
E65   E   0.24833  0.12500  0.58306
E66   E   0.24833  0.87500  0.91694
E67   E   0.25000  0.01789  0.00000
E68   E   0.25000  0.26789  0.50000
E69   E   0.25000  0.73211  0.00000
E70   E   0.25000  0.98211  0.50000
E71   E   0.25167  0.12500  0.41694
E72   E   0.25167  0.87500  0.08306
E73   E   0.25783  0.03482  0.57393
E74   E   0.25783  0.96518  0.92607
E75   E   0.26080  0.21518  0.42644
E76   E   0.26080  0.78482  0.07356
E77   E   0.26789  0.50000  0.25000
E78   E   0.28482  0.42644  0.73920
E79   E   0.28482  0.49217  0.67607
E80   E   0.28482  0.50783  0.82393
E81   E   0.28482  0.57356  0.76080
E82   E   0.32226  0.17771  0.57523
E83   E   0.32226  0.82229  0.92477
E84   E   0.32229  0.42477  0.82226
E85   E   0.32229  0.57523  0.67774
E86   E   0.32356  0.03482  0.51080
E87   E   0.32356  0.96518  0.98920
E88   E   0.32393  0.21518  0.49217
E89   E   0.32393  0.78482  0.00783
E90   E   0.32523  0.07229  0.42774
E91   E   0.32523  0.92771  0.07226
E92   E   0.32533  0.34325  0.61550
E93   E   0.32533  0.65675  0.88450
E94   E   0.33306  0.12500  0.50167
E95   E   0.33306  0.87500  0.99833
E96   E   0.34325  0.38450  0.17467
E97   E   0.34325  0.61550  0.32533
E98   E   0.36550  0.09325  0.07533
E99   E   0.36550  0.90675  0.42467
E100  E   0.37500  0.41694  0.74833
E101  E   0.37500  0.49833  0.83306
E102  E   0.37500  0.50167  0.66694
E103  E   0.37500  0.58306  0.75167
E104  E   0.38450  0.17467  0.34325
E105  E   0.38450  0.82533  0.15675
E106  E   0.40675  0.07533  0.63450
E107  E   0.40675  0.92467  0.86550
E108  E   0.41694  0.25167  0.12500
E109  E   0.41694  0.74833  0.37500
E110  E   0.42467  0.36550  0.90675
E111  E   0.42467  0.63450  0.59325
E112  E   0.42477  0.17774  0.17771
E113  E   0.42477  0.82226  0.32229
E114  E   0.42607  0.24217  0.03482
E115  E   0.42607  0.75783  0.46518
E116  E   0.42644  0.26080  0.21518
E117  E   0.42644  0.73920  0.28482
E118  E   0.42771  0.42774  0.67477
E119  E   0.42771  0.57226  0.82523
E120  E   0.42774  0.32523  0.07229
E121  E   0.42774  0.67477  0.42771
E122  E   0.46518  0.42607  0.75783
E123  E   0.46518  0.48920  0.82356
E124  E   0.46518  0.51080  0.67644
E125  E   0.46518  0.57393  0.74217
E126  E   0.48211  0.00000  0.75000
E127  E   0.48920  0.17644  0.03482
E128  E   0.48920  0.82356  0.46518
E129  E   0.49217  0.32393  0.21518
E130  E   0.49217  0.67607  0.28482
E131  E   0.49833  0.16694  0.12500
E132  E   0.49833  0.83306  0.37500
E133  E   0.50000  0.25000  0.26789
E134  E   0.50000  0.25000  0.98211
E135  E   0.50000  0.75000  0.23211
E136  E   0.50000  0.75000  0.51789
E137  E   0.50167  0.33306  0.12500
E138  E   0.50167  0.66694  0.37500
E139  E   0.50783  0.17607  0.21518
E140  E   0.50783  0.82393  0.28482
E141  E   0.51080  0.32356  0.03482
E142  E   0.51080  0.67644  0.46518
E143  E   0.51789  0.50000  0.75000
E144  E   0.53482  0.01080  0.82356
E145  E   0.53482  0.07393  0.75783
E146  E   0.53482  0.92607  0.74217
E147  E   0.53482  0.98920  0.67644
E148  E   0.57226  0.17477  0.07229
E149  E   0.57226  0.82523  0.42771
E150  E   0.57229  0.07226  0.67477
E151  E   0.57229  0.92774  0.82523
E152  E   0.57356  0.23920  0.21518
E153  E   0.57356  0.76080  0.28482
E154  E   0.57393  0.25783  0.03482
E155  E   0.57393  0.74217  0.46518
E156  E   0.57523  0.32226  0.17771
E157  E   0.57523  0.67774  0.32229
E158  E   0.57533  0.13450  0.90675
E159  E   0.57533  0.86550  0.59325
E160  E   0.58306  0.24833  0.12500
E161  E   0.58306  0.75167  0.37500
E162  E   0.59325  0.42467  0.63450
E163  E   0.59325  0.57533  0.86550
E164  E   0.61550  0.32533  0.34325
E165  E   0.61550  0.67467  0.15675
E166  E   0.62500  0.00167  0.83306
E167  E   0.62500  0.08306  0.74833
E168  E   0.62500  0.91694  0.75167
E169  E   0.62500  0.99833  0.66694
E170  E   0.63450  0.40675  0.07533
E171  E   0.63450  0.59325  0.42467
E172  E   0.65675  0.11550  0.17467
E173  E   0.65675  0.88450  0.32533
E174  E   0.66694  0.37500  0.50167
E175  E   0.66694  0.62500  0.99833
E176  E   0.67467  0.15675  0.61550
E177  E   0.67467  0.84325  0.88450
E178  E   0.67477  0.42771  0.42774
E179  E   0.67477  0.57229  0.07226
E180  E   0.67607  0.28482  0.49217
E181  E   0.67607  0.71518  0.00783
E182  E   0.67644  0.46518  0.51080
E183  E   0.67644  0.53482  0.98920
E184  E   0.67771  0.07523  0.82226
E185  E   0.67771  0.92477  0.67774
E186  E   0.67774  0.32229  0.57523
E187  E   0.67774  0.67771  0.92477
E188  E   0.71518  0.00783  0.67607
E189  E   0.71518  0.07356  0.73920
E190  E   0.71518  0.92644  0.76080
E191  E   0.71518  0.99217  0.82393
E192  E   0.73211  0.00000  0.25000
E193  E   0.73920  0.28482  0.42644
E194  E   0.73920  0.71518  0.07356
E195  E   0.74217  0.46518  0.57393
E196  E   0.74217  0.53482  0.92607
E197  E   0.74833  0.37500  0.41694
E198  E   0.74833  0.62500  0.08306
E199  E   0.75000  0.23211  0.50000
E200  E   0.75000  0.48211  0.00000
E201  E   0.75000  0.51789  0.50000
E202  E   0.75000  0.76789  0.00000
E203  E   0.75167  0.37500  0.58306
E204  E   0.75167  0.62500  0.91694
E205  E   0.75783  0.46518  0.42607
E206  E   0.75783  0.53482  0.07393
E207  E   0.76080  0.28482  0.57356
E208  E   0.76080  0.71518  0.92644
E209  E   0.76789  0.00000  0.75000
E210  E   0.78482  0.00783  0.32393
E211  E   0.78482  0.07356  0.26080
E212  E   0.78482  0.92644  0.23920
E213  E   0.78482  0.99217  0.17607
E214  E   0.82226  0.32229  0.42477
E215  E   0.82226  0.67771  0.07523
E216  E   0.82229  0.07523  0.17774
E217  E   0.82229  0.92477  0.32226
E218  E   0.82356  0.46518  0.48920
E219  E   0.82356  0.53482  0.01080
E220  E   0.82393  0.28482  0.50783
E221  E   0.82393  0.71518  0.99217
E222  E   0.82523  0.42771  0.57226
E223  E   0.82523  0.57229  0.92774
E224  E   0.82533  0.15675  0.38450
E225  E   0.82533  0.84325  0.11550
E226  E   0.83306  0.37500  0.49833
E227  E   0.83306  0.62500  0.00167
E228  E   0.84325  0.11550  0.82533
E229  E   0.84325  0.88450  0.67467
E230  E   0.86550  0.40675  0.92467
E231  E   0.86550  0.59325  0.57533
E232  E   0.87500  0.00167  0.16694
E233  E   0.87500  0.08306  0.25167
E234  E   0.87500  0.91694  0.24833
E235  E   0.87500  0.99833  0.33306
E236  E   0.88450  0.32533  0.65675
E237  E   0.88450  0.67467  0.84325
E238  E   0.90675  0.42467  0.36550
E239  E   0.90675  0.57533  0.13450
E240  E   0.91694  0.24833  0.87500
E241  E   0.91694  0.75167  0.62500
E242  E   0.92467  0.13450  0.09325
E243  E   0.92467  0.86550  0.40675
E244  E   0.92477  0.32226  0.82229
E245  E   0.92477  0.67774  0.67771
E246  E   0.92607  0.25783  0.96518
E247  E   0.92607  0.74217  0.53482
E248  E   0.92644  0.23920  0.78482
E249  E   0.92644  0.76080  0.71518
E250  E   0.92771  0.07226  0.32523
E251  E   0.92771  0.92774  0.17477
E252  E   0.92774  0.17477  0.92771
E253  E   0.92774  0.82523  0.57229
E254  E   0.96518  0.01080  0.17644
E255  E   0.96518  0.07393  0.24217
E256  E   0.96518  0.92607  0.25783
E257  E   0.96518  0.98920  0.32356
E258  E   0.98211  0.50000  0.25000
E259  E   0.98920  0.32356  0.96518
E260  E   0.98920  0.67644  0.53482
E261  E   0.99217  0.17607  0.78482
E262  E   0.99217  0.82393  0.71518
E263  E   0.99833  0.33306  0.87500
E264  E   0.99833  0.66694  0.62500
loop_
