data_tof_Pn-3m:2  hall_number: 522, V_con: 4, EC_con: 4
_audit_creation_date              2025-03-05
_audit_creation_method            'MOFbuilder_1.0'
_symmetry_space_group_name_H-M    'P1'
_symmetry_Int_Tables_number       1
_symmetry_cell_setting            triclinic
loop_
_symmetry_equiv_pos_as_xyz
  x,y,z
_cell_length_a                    24.2158
_cell_length_b                    24.2158
_cell_length_c                    24.2158
_cell_angle_alpha                 90.0
_cell_angle_beta                  90.0
_cell_angle_gamma                 90.0
loop_
_atom_site_label
_atom_site_type_symbol
_atom_site_fract_x
_atom_site_fract_y
_atom_site_fract_z
V1    V   0.25000  0.25000  0.75000
V2    V   0.25000  0.75000  0.25000
V3    V   0.25000  0.75000  0.75000
V4    V   0.75000  0.25000  0.25000
V5    V   0.75000  0.25000  0.75000
V6    V   0.75000  0.75000  0.25000
EC1    EC   0.11921  0.11921  0.11921
EC2    EC   0.11921  0.38079  0.38079
EC3    EC   0.38079  0.11921  0.38079
EC4    EC   0.38079  0.38079  0.11921
EC5    EC   0.61921  0.61921  0.88079
EC6    EC   0.61921  0.88079  0.61921
EC7    EC   0.88079  0.61921  0.61921
EC8    EC   0.88079  0.88079  0.88079
E1    E   0.00000  0.00000  0.00000
E2    E   0.00000  0.50000  0.50000
E3    E   0.06539  0.68461  0.68461
E4    E   0.06539  0.81539  0.81539
E5    E   0.18461  0.18461  0.93461
E6    E   0.18461  0.31539  0.56539
E7    E   0.18461  0.56539  0.31539
E8    E   0.18461  0.93461  0.18461
E9    E   0.31539  0.18461  0.56539
E10   E   0.31539  0.31539  0.93461
E11   E   0.31539  0.56539  0.18461
E12   E   0.31539  0.93461  0.31539
E13   E   0.43461  0.68461  0.81539
E14   E   0.43461  0.81539  0.68461
E15   E   0.50000  0.00000  0.50000
E16   E   0.50000  0.50000  0.00000
E17   E   0.56539  0.18461  0.31539
E18   E   0.56539  0.31539  0.18461
E19   E   0.68461  0.06539  0.68461
E20   E   0.68461  0.43461  0.81539
E21   E   0.68461  0.68461  0.06539
E22   E   0.68461  0.81539  0.43461
E23   E   0.81539  0.06539  0.81539
E24   E   0.81539  0.43461  0.68461
E25   E   0.81539  0.68461  0.43461
E26   E   0.81539  0.81539  0.06539
E27   E   0.93461  0.18461  0.18461
E28   E   0.93461  0.31539  0.31539
loop_
