data_tpd_P63/mmc  hall_number: 488, V_con: 4, EC_con: 4
_audit_creation_date              2025-03-05
_audit_creation_method            'MOFbuilder_1.0'
_symmetry_space_group_name_H-M    'P1'
_symmetry_Int_Tables_number       1
_symmetry_cell_setting            triclinic
loop_
_symmetry_equiv_pos_as_xyz
  x,y,z
_cell_length_a                    32.2018
_cell_length_b                    32.2018
_cell_length_c                    30.2337
_cell_angle_alpha                 90.0
_cell_angle_beta                  90.0
_cell_angle_gamma                 120.0
loop_
_atom_site_label
_atom_site_type_symbol
_atom_site_fract_x
_atom_site_fract_y
_atom_site_fract_z
V1    V   0.33333  0.66666  0.58462
V2    V   0.33333  0.66666  0.91538
V3    V   0.33333  0.66667  0.58462
V4    V   0.33333  0.66667  0.91538
V5    V   0.33334  0.66667  0.58462
V6    V   0.33334  0.66667  0.91538
V7    V   0.66666  0.33333  0.08462
V8    V   0.66666  0.33333  0.41538
V9    V   0.66667  0.33333  0.08462
V10   V   0.66667  0.33333  0.41538
V11   V   0.66667  0.33334  0.08462
V12   V   0.66667  0.33334  0.41538
EC1    EC   0.15404  0.30808  0.58462
EC2    EC   0.15404  0.30808  0.91538
EC3    EC   0.15404  0.84596  0.58462
EC4    EC   0.15404  0.84596  0.91538
EC5    EC   0.30808  0.15404  0.08462
EC6    EC   0.30808  0.15404  0.41538
EC7    EC   0.69192  0.84596  0.58462
EC8    EC   0.69192  0.84596  0.91538
EC9    EC   0.84596  0.15404  0.08462
EC10   EC   0.84596  0.15404  0.41538
EC11   EC   0.84596  0.69192  0.08462
EC12   EC   0.84596  0.69192  0.41538
E1    E   0.00000  0.23106  0.00000
E2    E   0.00000  0.23106  0.50000
E3    E   0.00000  0.76894  0.00000
E4    E   0.00000  0.76894  0.50000
E5    E   0.15404  0.30808  0.75000
E6    E   0.15404  0.84596  0.75000
E7    E   0.23106  0.00000  0.00000
E8    E   0.23106  0.00000  0.50000
E9    E   0.23106  0.23106  0.00000
E10   E   0.23106  0.23106  0.50000
E11   E   0.24369  0.48738  0.58462
E12   E   0.24369  0.48738  0.91538
E13   E   0.24369  0.75631  0.58462
E14   E   0.24369  0.75631  0.91538
E15   E   0.30808  0.15404  0.25000
E16   E   0.33333  0.66666  0.75000
E17   E   0.33333  0.66667  0.75000
E18   E   0.33334  0.66667  0.75000
E19   E   0.48738  0.24369  0.08462
E20   E   0.48738  0.24369  0.41538
E21   E   0.51262  0.75631  0.58462
E22   E   0.51262  0.75631  0.91538
E23   E   0.66666  0.33333  0.25000
E24   E   0.66667  0.33333  0.25000
E25   E   0.66667  0.33334  0.25000
E26   E   0.69192  0.84596  0.75000
E27   E   0.75631  0.24369  0.08462
E28   E   0.75631  0.24369  0.41538
E29   E   0.75631  0.51262  0.08462
E30   E   0.75631  0.51262  0.41538
E31   E   0.76894  0.00000  0.00000
E32   E   0.76894  0.00000  0.50000
E33   E   0.76894  0.76894  0.00000
E34   E   0.76894  0.76894  0.50000
E35   E   0.84596  0.15404  0.25000
E36   E   0.84596  0.69192  0.25000
loop_
