data_tph_I-43d  hall_number: 516, V_con: 8, EC_con: 6
_audit_creation_date              2025-03-05
_audit_creation_method            'MOFbuilder_1.0'
_symmetry_space_group_name_H-M    'P1'
_symmetry_Int_Tables_number       1
_symmetry_cell_setting            triclinic
loop_
_symmetry_equiv_pos_as_xyz
  x,y,z
_cell_length_a                    28.8926
_cell_length_b                    28.8926
_cell_length_c                    28.8926
_cell_angle_alpha                 90.0
_cell_angle_beta                  90.0
_cell_angle_gamma                 90.0
loop_
_atom_site_label
_atom_site_type_symbol
_atom_site_fract_x
_atom_site_fract_y
_atom_site_fract_z
V1    V   0.00000  0.25000  0.87500
V2    V   0.00000  0.75000  0.62500
V3    V   0.12500  0.50000  0.25000
V4    V   0.25000  0.12500  0.50000
V5    V   0.25000  0.87500  0.00000
V6    V   0.37500  0.50000  0.75000
V7    V   0.50000  0.25000  0.12500
V8    V   0.50000  0.75000  0.37500
V9    V   0.62500  0.00000  0.75000
V10   V   0.75000  0.37500  0.50000
V11   V   0.75000  0.62500  0.00000
V12   V   0.87500  0.00000  0.25000
EC1    EC   0.08333  0.41667  0.58333
EC2    EC   0.08333  0.58333  0.91667
EC3    EC   0.16667  0.16667  0.16667
EC4    EC   0.16667  0.83333  0.33333
EC5    EC   0.33333  0.16667  0.83333
EC6    EC   0.33333  0.83333  0.66667
EC7    EC   0.41667  0.41667  0.41667
EC8    EC   0.41667  0.58333  0.08333
EC9    EC   0.58333  0.08333  0.41667
EC10   EC   0.58333  0.91667  0.08333
EC11   EC   0.66667  0.33333  0.83333
EC12   EC   0.66667  0.66667  0.66667
EC13   EC   0.83333  0.33333  0.16667
EC14   EC   0.83333  0.66667  0.33333
EC15   EC   0.91667  0.08333  0.58333
EC16   EC   0.91667  0.91667  0.91667
E1    E   0.02083  0.08333  0.20833
E2    E   0.02083  0.91667  0.29167
E3    E   0.04167  0.33333  0.72917
E4    E   0.04167  0.66667  0.77083
E5    E   0.04167  0.41667  0.89583
E6    E   0.04167  0.58333  0.60417
E7    E   0.08333  0.10417  0.54167
E8    E   0.08333  0.89583  0.95833
E9    E   0.08333  0.20833  0.02083
E10   E   0.08333  0.79167  0.47917
E11   E   0.10417  0.45833  0.41667
E12   E   0.10417  0.54167  0.08333
E13   E   0.14583  0.33333  0.20833
E14   E   0.14583  0.66667  0.29167
E15   E   0.16667  0.27083  0.54167
E16   E   0.16667  0.72917  0.95833
E17   E   0.16667  0.20833  0.85417
E18   E   0.16667  0.79167  0.64583
E19   E   0.20833  0.14583  0.33333
E20   E   0.20833  0.85417  0.16667
E21   E   0.20833  0.02083  0.08333
E22   E   0.20833  0.97917  0.41667
E23   E   0.22917  0.45833  0.66667
E24   E   0.22917  0.54167  0.83333
E25   E   0.27083  0.45833  0.33333
E26   E   0.27083  0.54167  0.16667
E27   E   0.29167  0.02083  0.91667
E28   E   0.29167  0.14583  0.66667
E29   E   0.29167  0.85417  0.83333
E30   E   0.29167  0.97917  0.58333
E31   E   0.33333  0.20833  0.14583
E32   E   0.33333  0.27083  0.45833
E33   E   0.33333  0.72917  0.04167
E34   E   0.33333  0.79167  0.35417
E35   E   0.35417  0.33333  0.79167
E36   E   0.35417  0.66667  0.70833
E37   E   0.39583  0.45833  0.58333
E38   E   0.39583  0.54167  0.91667
E39   E   0.41667  0.10417  0.45833
E40   E   0.41667  0.20833  0.97917
E41   E   0.41667  0.79167  0.52083
E42   E   0.41667  0.89583  0.04167
E43   E   0.45833  0.33333  0.27083
E44   E   0.45833  0.41667  0.10417
E45   E   0.45833  0.58333  0.39583
E46   E   0.45833  0.66667  0.22917
E47   E   0.47917  0.08333  0.79167
E48   E   0.47917  0.91667  0.70833
E49   E   0.52083  0.41667  0.79167
E50   E   0.52083  0.58333  0.70833
E51   E   0.54167  0.08333  0.10417
E52   E   0.54167  0.16667  0.27083
E53   E   0.54167  0.83333  0.22917
E54   E   0.54167  0.91667  0.39583
E55   E   0.58333  0.29167  0.97917
E56   E   0.58333  0.39583  0.45833
E57   E   0.58333  0.60417  0.04167
E58   E   0.58333  0.70833  0.52083
E59   E   0.60417  0.04167  0.58333
E60   E   0.60417  0.95833  0.91667
E61   E   0.64583  0.16667  0.79167
E62   E   0.64583  0.83333  0.70833
E63   E   0.66667  0.22917  0.45833
E64   E   0.66667  0.29167  0.14583
E65   E   0.66667  0.70833  0.35417
E66   E   0.66667  0.77083  0.04167
E67   E   0.70833  0.35417  0.66667
E68   E   0.70833  0.47917  0.91667
E69   E   0.70833  0.52083  0.58333
E70   E   0.70833  0.64583  0.83333
E71   E   0.72917  0.04167  0.33333
E72   E   0.72917  0.95833  0.16667
E73   E   0.77083  0.04167  0.66667
E74   E   0.77083  0.95833  0.83333
E75   E   0.79167  0.35417  0.33333
E76   E   0.79167  0.47917  0.08333
E77   E   0.79167  0.52083  0.41667
E78   E   0.79167  0.64583  0.16667
E79   E   0.83333  0.22917  0.54167
E80   E   0.83333  0.29167  0.85417
E81   E   0.83333  0.70833  0.64583
E82   E   0.83333  0.77083  0.95833
E83   E   0.85417  0.16667  0.20833
E84   E   0.85417  0.83333  0.29167
E85   E   0.89583  0.04167  0.41667
E86   E   0.89583  0.95833  0.08333
E87   E   0.91667  0.29167  0.02083
E88   E   0.91667  0.39583  0.54167
E89   E   0.91667  0.60417  0.95833
E90   E   0.91667  0.70833  0.47917
E91   E   0.95833  0.08333  0.89583
E92   E   0.95833  0.16667  0.72917
E93   E   0.95833  0.83333  0.77083
E94   E   0.95833  0.91667  0.60417
E95   E   0.97917  0.41667  0.20833
E96   E   0.97917  0.58333  0.29167
loop_
