data_tsc_Fm-3m  hall_number: 523, V_con: 4, EC_con: 4
_audit_creation_date              2025-03-05
_audit_creation_method            'MOFbuilder_1.0'
_symmetry_space_group_name_H-M    'P1'
_symmetry_Int_Tables_number       1
_symmetry_cell_setting            triclinic
loop_
_symmetry_equiv_pos_as_xyz
  x,y,z
_cell_length_a                    99.66250000000001
_cell_length_b                    99.66250000000001
_cell_length_c                    99.66250000000001
_cell_angle_alpha                 90.0
_cell_angle_beta                  90.0
_cell_angle_gamma                 90.0
loop_
_atom_site_label
_atom_site_type_symbol
_atom_site_fract_x
_atom_site_fract_y
_atom_site_fract_z
V1    V   0.10810  0.17905  0.25000
V2    V   0.10810  0.17905  0.75000
V3    V   0.10810  0.25000  0.17905
V4    V   0.10810  0.25000  0.32095
V5    V   0.10810  0.25000  0.67905
V6    V   0.10810  0.25000  0.82095
V7    V   0.10810  0.32095  0.25000
V8    V   0.10810  0.32095  0.75000
V9    V   0.10810  0.67905  0.25000
V10   V   0.10810  0.67905  0.75000
V11   V   0.10810  0.75000  0.17905
V12   V   0.10810  0.75000  0.32095
V13   V   0.10810  0.75000  0.67905
V14   V   0.10810  0.75000  0.82095
V15   V   0.10810  0.82095  0.25000
V16   V   0.10810  0.82095  0.75000
V17   V   0.17905  0.10810  0.25000
V18   V   0.17905  0.10810  0.75000
V19   V   0.17905  0.25000  0.10810
V20   V   0.17905  0.25000  0.39190
V21   V   0.17905  0.25000  0.60810
V22   V   0.17905  0.25000  0.89190
V23   V   0.17905  0.39190  0.25000
V24   V   0.17905  0.39190  0.75000
V25   V   0.17905  0.60810  0.25000
V26   V   0.17905  0.60810  0.75000
V27   V   0.17905  0.75000  0.10810
V28   V   0.17905  0.75000  0.39190
V29   V   0.17905  0.75000  0.60810
V30   V   0.17905  0.75000  0.89190
V31   V   0.17905  0.89190  0.25000
V32   V   0.17905  0.89190  0.75000
V33   V   0.25000  0.10810  0.17905
V34   V   0.25000  0.10810  0.32095
V35   V   0.25000  0.10810  0.67905
V36   V   0.25000  0.10810  0.82095
V37   V   0.25000  0.17905  0.10810
V38   V   0.25000  0.17905  0.39190
V39   V   0.25000  0.17905  0.60810
V40   V   0.25000  0.17905  0.89190
V41   V   0.25000  0.32095  0.10810
V42   V   0.25000  0.32095  0.39190
V43   V   0.25000  0.32095  0.60810
V44   V   0.25000  0.32095  0.89190
V45   V   0.25000  0.39190  0.17905
V46   V   0.25000  0.39190  0.32095
V47   V   0.25000  0.39190  0.67905
V48   V   0.25000  0.39190  0.82095
V49   V   0.25000  0.60810  0.17905
V50   V   0.25000  0.60810  0.32095
V51   V   0.25000  0.60810  0.67905
V52   V   0.25000  0.60810  0.82095
V53   V   0.25000  0.67905  0.10810
V54   V   0.25000  0.67905  0.39190
V55   V   0.25000  0.67905  0.60810
V56   V   0.25000  0.67905  0.89190
V57   V   0.25000  0.82095  0.10810
V58   V   0.25000  0.82095  0.39190
V59   V   0.25000  0.82095  0.60810
V60   V   0.25000  0.82095  0.89190
V61   V   0.25000  0.89190  0.17905
V62   V   0.25000  0.89190  0.32095
V63   V   0.25000  0.89190  0.67905
V64   V   0.25000  0.89190  0.82095
V65   V   0.32095  0.10810  0.25000
V66   V   0.32095  0.10810  0.75000
V67   V   0.32095  0.25000  0.10810
V68   V   0.32095  0.25000  0.39190
V69   V   0.32095  0.25000  0.60810
V70   V   0.32095  0.25000  0.89190
V71   V   0.32095  0.39190  0.25000
V72   V   0.32095  0.39190  0.75000
V73   V   0.32095  0.60810  0.25000
V74   V   0.32095  0.60810  0.75000
V75   V   0.32095  0.75000  0.10810
V76   V   0.32095  0.75000  0.39190
V77   V   0.32095  0.75000  0.60810
V78   V   0.32095  0.75000  0.89190
V79   V   0.32095  0.89190  0.25000
V80   V   0.32095  0.89190  0.75000
V81   V   0.39190  0.17905  0.25000
V82   V   0.39190  0.17905  0.75000
V83   V   0.39190  0.25000  0.17905
V84   V   0.39190  0.25000  0.32095
V85   V   0.39190  0.25000  0.67905
V86   V   0.39190  0.25000  0.82095
V87   V   0.39190  0.32095  0.25000
V88   V   0.39190  0.32095  0.75000
V89   V   0.39190  0.67905  0.25000
V90   V   0.39190  0.67905  0.75000
V91   V   0.39190  0.75000  0.17905
V92   V   0.39190  0.75000  0.32095
V93   V   0.39190  0.75000  0.67905
V94   V   0.39190  0.75000  0.82095
V95   V   0.39190  0.82095  0.25000
V96   V   0.39190  0.82095  0.75000
V97   V   0.60810  0.17905  0.25000
V98   V   0.60810  0.17905  0.75000
V99   V   0.60810  0.25000  0.17905
V100  V   0.60810  0.25000  0.32095
V101  V   0.60810  0.25000  0.67905
V102  V   0.60810  0.25000  0.82095
V103  V   0.60810  0.32095  0.25000
V104  V   0.60810  0.32095  0.75000
V105  V   0.60810  0.67905  0.25000
V106  V   0.60810  0.67905  0.75000
V107  V   0.60810  0.75000  0.17905
V108  V   0.60810  0.75000  0.32095
V109  V   0.60810  0.75000  0.67905
V110  V   0.60810  0.75000  0.82095
V111  V   0.60810  0.82095  0.25000
V112  V   0.60810  0.82095  0.75000
V113  V   0.67905  0.10810  0.25000
V114  V   0.67905  0.10810  0.75000
V115  V   0.67905  0.25000  0.10810
V116  V   0.67905  0.25000  0.39190
V117  V   0.67905  0.25000  0.60810
V118  V   0.67905  0.25000  0.89190
V119  V   0.67905  0.39190  0.25000
V120  V   0.67905  0.39190  0.75000
V121  V   0.67905  0.60810  0.25000
V122  V   0.67905  0.60810  0.75000
V123  V   0.67905  0.75000  0.10810
V124  V   0.67905  0.75000  0.39190
V125  V   0.67905  0.75000  0.60810
V126  V   0.67905  0.75000  0.89190
V127  V   0.67905  0.89190  0.25000
V128  V   0.67905  0.89190  0.75000
V129  V   0.75000  0.10810  0.17905
V130  V   0.75000  0.10810  0.32095
V131  V   0.75000  0.10810  0.67905
V132  V   0.75000  0.10810  0.82095
V133  V   0.75000  0.17905  0.10810
V134  V   0.75000  0.17905  0.39190
V135  V   0.75000  0.17905  0.60810
V136  V   0.75000  0.17905  0.89190
V137  V   0.75000  0.32095  0.10810
V138  V   0.75000  0.32095  0.39190
V139  V   0.75000  0.32095  0.60810
V140  V   0.75000  0.32095  0.89190
V141  V   0.75000  0.39190  0.17905
V142  V   0.75000  0.39190  0.32095
V143  V   0.75000  0.39190  0.67905
V144  V   0.75000  0.39190  0.82095
V145  V   0.75000  0.60810  0.17905
V146  V   0.75000  0.60810  0.32095
V147  V   0.75000  0.60810  0.67905
V148  V   0.75000  0.60810  0.82095
V149  V   0.75000  0.67905  0.10810
V150  V   0.75000  0.67905  0.39190
V151  V   0.75000  0.67905  0.60810
V152  V   0.75000  0.67905  0.89190
V153  V   0.75000  0.82095  0.10810
V154  V   0.75000  0.82095  0.39190
V155  V   0.75000  0.82095  0.60810
V156  V   0.75000  0.82095  0.89190
V157  V   0.75000  0.89190  0.17905
V158  V   0.75000  0.89190  0.32095
V159  V   0.75000  0.89190  0.67905
V160  V   0.75000  0.89190  0.82095
V161  V   0.82095  0.10810  0.25000
V162  V   0.82095  0.10810  0.75000
V163  V   0.82095  0.25000  0.10810
V164  V   0.82095  0.25000  0.39190
V165  V   0.82095  0.25000  0.60810
V166  V   0.82095  0.25000  0.89190
V167  V   0.82095  0.39190  0.25000
V168  V   0.82095  0.39190  0.75000
V169  V   0.82095  0.60810  0.25000
V170  V   0.82095  0.60810  0.75000
V171  V   0.82095  0.75000  0.10810
V172  V   0.82095  0.75000  0.39190
V173  V   0.82095  0.75000  0.60810
V174  V   0.82095  0.75000  0.89190
V175  V   0.82095  0.89190  0.25000
V176  V   0.82095  0.89190  0.75000
V177  V   0.89190  0.17905  0.25000
V178  V   0.89190  0.17905  0.75000
V179  V   0.89190  0.25000  0.17905
V180  V   0.89190  0.25000  0.32095
V181  V   0.89190  0.25000  0.67905
V182  V   0.89190  0.25000  0.82095
V183  V   0.89190  0.32095  0.25000
V184  V   0.89190  0.32095  0.75000
V185  V   0.89190  0.67905  0.25000
V186  V   0.89190  0.67905  0.75000
V187  V   0.89190  0.75000  0.17905
V188  V   0.89190  0.75000  0.32095
V189  V   0.89190  0.75000  0.67905
V190  V   0.89190  0.75000  0.82095
V191  V   0.89190  0.82095  0.25000
V192  V   0.89190  0.82095  0.75000
EC1    EC   0.05017  0.12112  0.30793
EC2    EC   0.05017  0.12112  0.69207
EC3    EC   0.05017  0.19207  0.37888
EC4    EC   0.05017  0.19207  0.62112
EC5    EC   0.05017  0.30793  0.12112
EC6    EC   0.05017  0.30793  0.87888
EC7    EC   0.05017  0.37888  0.19207
EC8    EC   0.05017  0.37888  0.80793
EC9    EC   0.05017  0.62112  0.19207
EC10   EC   0.05017  0.62112  0.80793
EC11   EC   0.05017  0.69207  0.12112
EC12   EC   0.05017  0.69207  0.87888
EC13   EC   0.05017  0.80793  0.37888
EC14   EC   0.05017  0.80793  0.62112
EC15   EC   0.05017  0.87888  0.30793
EC16   EC   0.05017  0.87888  0.69207
EC17   EC   0.12112  0.05017  0.30793
EC18   EC   0.12112  0.05017  0.69207
EC19   EC   0.12112  0.19207  0.44983
EC20   EC   0.12112  0.19207  0.55017
EC21   EC   0.12112  0.30793  0.05017
EC22   EC   0.12112  0.30793  0.94983
EC23   EC   0.12112  0.44983  0.19207
EC24   EC   0.12112  0.44983  0.80793
EC25   EC   0.12112  0.55017  0.19207
EC26   EC   0.12112  0.55017  0.80793
EC27   EC   0.12112  0.69207  0.05017
EC28   EC   0.12112  0.69207  0.94983
EC29   EC   0.12112  0.80793  0.44983
EC30   EC   0.12112  0.80793  0.55017
EC31   EC   0.12112  0.94983  0.30793
EC32   EC   0.12112  0.94983  0.69207
EC33   EC   0.19207  0.05017  0.37888
EC34   EC   0.19207  0.05017  0.62112
EC35   EC   0.19207  0.12112  0.44983
EC36   EC   0.19207  0.12112  0.55017
EC37   EC   0.19207  0.37888  0.05017
EC38   EC   0.19207  0.37888  0.94983
EC39   EC   0.19207  0.44983  0.12112
EC40   EC   0.19207  0.44983  0.87888
EC41   EC   0.19207  0.55017  0.12112
EC42   EC   0.19207  0.55017  0.87888
EC43   EC   0.19207  0.62112  0.05017
EC44   EC   0.19207  0.62112  0.94983
EC45   EC   0.19207  0.87888  0.44983
EC46   EC   0.19207  0.87888  0.55017
EC47   EC   0.19207  0.94983  0.37888
EC48   EC   0.19207  0.94983  0.62112
EC49   EC   0.30793  0.05017  0.12112
EC50   EC   0.30793  0.05017  0.87888
EC51   EC   0.30793  0.12112  0.05017
EC52   EC   0.30793  0.12112  0.94983
EC53   EC   0.30793  0.37888  0.44983
EC54   EC   0.30793  0.37888  0.55017
EC55   EC   0.30793  0.44983  0.37888
EC56   EC   0.30793  0.44983  0.62112
EC57   EC   0.30793  0.55017  0.37888
EC58   EC   0.30793  0.55017  0.62112
EC59   EC   0.30793  0.62112  0.44983
EC60   EC   0.30793  0.62112  0.55017
EC61   EC   0.30793  0.87888  0.05017
EC62   EC   0.30793  0.87888  0.94983
EC63   EC   0.30793  0.94983  0.12112
EC64   EC   0.30793  0.94983  0.87888
EC65   EC   0.37888  0.05017  0.19207
EC66   EC   0.37888  0.05017  0.80793
EC67   EC   0.37888  0.19207  0.05017
EC68   EC   0.37888  0.19207  0.94983
EC69   EC   0.37888  0.30793  0.44983
EC70   EC   0.37888  0.30793  0.55017
EC71   EC   0.37888  0.44983  0.30793
EC72   EC   0.37888  0.44983  0.69207
EC73   EC   0.37888  0.55017  0.30793
EC74   EC   0.37888  0.55017  0.69207
EC75   EC   0.37888  0.69207  0.44983
EC76   EC   0.37888  0.69207  0.55017
EC77   EC   0.37888  0.80793  0.05017
EC78   EC   0.37888  0.80793  0.94983
EC79   EC   0.37888  0.94983  0.19207
EC80   EC   0.37888  0.94983  0.80793
EC81   EC   0.44983  0.12112  0.19207
EC82   EC   0.44983  0.12112  0.80793
EC83   EC   0.44983  0.19207  0.12112
EC84   EC   0.44983  0.19207  0.87888
EC85   EC   0.44983  0.30793  0.37888
EC86   EC   0.44983  0.30793  0.62112
EC87   EC   0.44983  0.37888  0.30793
EC88   EC   0.44983  0.37888  0.69207
EC89   EC   0.44983  0.62112  0.30793
EC90   EC   0.44983  0.62112  0.69207
EC91   EC   0.44983  0.69207  0.37888
EC92   EC   0.44983  0.69207  0.62112
EC93   EC   0.44983  0.80793  0.12112
EC94   EC   0.44983  0.80793  0.87888
EC95   EC   0.44983  0.87888  0.19207
EC96   EC   0.44983  0.87888  0.80793
EC97   EC   0.55017  0.12112  0.19207
EC98   EC   0.55017  0.12112  0.80793
EC99   EC   0.55017  0.19207  0.12112
EC100  EC   0.55017  0.19207  0.87888
EC101  EC   0.55017  0.30793  0.37888
EC102  EC   0.55017  0.30793  0.62112
EC103  EC   0.55017  0.37888  0.30793
EC104  EC   0.55017  0.37888  0.69207
EC105  EC   0.55017  0.62112  0.30793
EC106  EC   0.55017  0.62112  0.69207
EC107  EC   0.55017  0.69207  0.37888
EC108  EC   0.55017  0.69207  0.62112
EC109  EC   0.55017  0.80793  0.12112
EC110  EC   0.55017  0.80793  0.87888
EC111  EC   0.55017  0.87888  0.19207
EC112  EC   0.55017  0.87888  0.80793
EC113  EC   0.62112  0.05017  0.19207
EC114  EC   0.62112  0.05017  0.80793
EC115  EC   0.62112  0.19207  0.05017
EC116  EC   0.62112  0.19207  0.94983
EC117  EC   0.62112  0.30793  0.44983
EC118  EC   0.62112  0.30793  0.55017
EC119  EC   0.62112  0.44983  0.30793
EC120  EC   0.62112  0.44983  0.69207
EC121  EC   0.62112  0.55017  0.30793
EC122  EC   0.62112  0.55017  0.69207
EC123  EC   0.62112  0.69207  0.44983
EC124  EC   0.62112  0.69207  0.55017
EC125  EC   0.62112  0.80793  0.05017
EC126  EC   0.62112  0.80793  0.94983
EC127  EC   0.62112  0.94983  0.19207
EC128  EC   0.62112  0.94983  0.80793
EC129  EC   0.69207  0.05017  0.12112
EC130  EC   0.69207  0.05017  0.87888
EC131  EC   0.69207  0.12112  0.05017
EC132  EC   0.69207  0.12112  0.94983
EC133  EC   0.69207  0.37888  0.44983
EC134  EC   0.69207  0.37888  0.55017
EC135  EC   0.69207  0.44983  0.37888
EC136  EC   0.69207  0.44983  0.62112
EC137  EC   0.69207  0.55017  0.37888
EC138  EC   0.69207  0.55017  0.62112
EC139  EC   0.69207  0.62112  0.44983
EC140  EC   0.69207  0.62112  0.55017
EC141  EC   0.69207  0.87888  0.05017
EC142  EC   0.69207  0.87888  0.94983
EC143  EC   0.69207  0.94983  0.12112
EC144  EC   0.69207  0.94983  0.87888
EC145  EC   0.80793  0.05017  0.37888
EC146  EC   0.80793  0.05017  0.62112
EC147  EC   0.80793  0.12112  0.44983
EC148  EC   0.80793  0.12112  0.55017
EC149  EC   0.80793  0.37888  0.05017
EC150  EC   0.80793  0.37888  0.94983
EC151  EC   0.80793  0.44983  0.12112
EC152  EC   0.80793  0.44983  0.87888
EC153  EC   0.80793  0.55017  0.12112
EC154  EC   0.80793  0.55017  0.87888
EC155  EC   0.80793  0.62112  0.05017
EC156  EC   0.80793  0.62112  0.94983
EC157  EC   0.80793  0.87888  0.44983
EC158  EC   0.80793  0.87888  0.55017
EC159  EC   0.80793  0.94983  0.37888
EC160  EC   0.80793  0.94983  0.62112
EC161  EC   0.87888  0.05017  0.30793
EC162  EC   0.87888  0.05017  0.69207
EC163  EC   0.87888  0.19207  0.44983
EC164  EC   0.87888  0.19207  0.55017
EC165  EC   0.87888  0.30793  0.05017
EC166  EC   0.87888  0.30793  0.94983
EC167  EC   0.87888  0.44983  0.19207
EC168  EC   0.87888  0.44983  0.80793
EC169  EC   0.87888  0.55017  0.19207
EC170  EC   0.87888  0.55017  0.80793
EC171  EC   0.87888  0.69207  0.05017
EC172  EC   0.87888  0.69207  0.94983
EC173  EC   0.87888  0.80793  0.44983
EC174  EC   0.87888  0.80793  0.55017
EC175  EC   0.87888  0.94983  0.30793
EC176  EC   0.87888  0.94983  0.69207
EC177  EC   0.94983  0.12112  0.30793
EC178  EC   0.94983  0.12112  0.69207
EC179  EC   0.94983  0.19207  0.37888
EC180  EC   0.94983  0.19207  0.62112
EC181  EC   0.94983  0.30793  0.12112
EC182  EC   0.94983  0.30793  0.87888
EC183  EC   0.94983  0.37888  0.19207
EC184  EC   0.94983  0.37888  0.80793
EC185  EC   0.94983  0.62112  0.19207
EC186  EC   0.94983  0.62112  0.80793
EC187  EC   0.94983  0.69207  0.12112
EC188  EC   0.94983  0.69207  0.87888
EC189  EC   0.94983  0.80793  0.37888
EC190  EC   0.94983  0.80793  0.62112
EC191  EC   0.94983  0.87888  0.30793
EC192  EC   0.94983  0.87888  0.69207
E1    E   0.00000  0.12112  0.30793
E2    E   0.00000  0.12112  0.69207
E3    E   0.00000  0.19207  0.37888
E4    E   0.00000  0.19207  0.62112
E5    E   0.00000  0.30793  0.12112
E6    E   0.00000  0.30793  0.87888
E7    E   0.00000  0.37888  0.19207
E8    E   0.00000  0.37888  0.80793
E9    E   0.00000  0.62112  0.19207
E10   E   0.00000  0.62112  0.80793
E11   E   0.00000  0.69207  0.12112
E12   E   0.00000  0.69207  0.87888
E13   E   0.00000  0.80793  0.37888
E14   E   0.00000  0.80793  0.62112
E15   E   0.00000  0.87888  0.30793
E16   E   0.00000  0.87888  0.69207
E17   E   0.05017  0.15659  0.34341
E18   E   0.05017  0.15659  0.65659
E19   E   0.05017  0.34341  0.15659
E20   E   0.05017  0.34341  0.84341
E21   E   0.05017  0.65659  0.15659
E22   E   0.05017  0.65659  0.84341
E23   E   0.05017  0.84341  0.34341
E24   E   0.05017  0.84341  0.65659
E25   E   0.07913  0.15008  0.27897
E26   E   0.07913  0.15008  0.72103
E27   E   0.07913  0.22103  0.34992
E28   E   0.07913  0.22103  0.65008
E29   E   0.07913  0.27897  0.15008
E30   E   0.07913  0.27897  0.84992
E31   E   0.07913  0.34992  0.22103
E32   E   0.07913  0.34992  0.77897
E33   E   0.07913  0.65008  0.22103
E34   E   0.07913  0.65008  0.77897
E35   E   0.07913  0.72103  0.15008
E36   E   0.07913  0.72103  0.84992
E37   E   0.07913  0.77897  0.34992
E38   E   0.07913  0.77897  0.65008
E39   E   0.07913  0.84992  0.27897
E40   E   0.07913  0.84992  0.72103
E41   E   0.08564  0.08564  0.30793
E42   E   0.08564  0.08564  0.69207
E43   E   0.08564  0.19207  0.41436
E44   E   0.08564  0.19207  0.58564
E45   E   0.08564  0.30793  0.08564
E46   E   0.08564  0.30793  0.91436
E47   E   0.08564  0.41436  0.19207
E48   E   0.08564  0.41436  0.80793
E49   E   0.08564  0.58564  0.19207
E50   E   0.08564  0.58564  0.80793
E51   E   0.08564  0.69207  0.08564
E52   E   0.08564  0.69207  0.91436
E53   E   0.08564  0.80793  0.41436
E54   E   0.08564  0.80793  0.58564
E55   E   0.08564  0.91436  0.30793
E56   E   0.08564  0.91436  0.69207
E57   E   0.10810  0.21452  0.21452
E58   E   0.10810  0.21452  0.28548
E59   E   0.10810  0.21452  0.71452
E60   E   0.10810  0.21452  0.78548
E61   E   0.10810  0.28548  0.21452
E62   E   0.10810  0.28548  0.28548
E63   E   0.10810  0.28548  0.71452
E64   E   0.10810  0.28548  0.78548
E65   E   0.10810  0.71452  0.21452
E66   E   0.10810  0.71452  0.28548
E67   E   0.10810  0.71452  0.71452
E68   E   0.10810  0.71452  0.78548
E69   E   0.10810  0.78548  0.21452
E70   E   0.10810  0.78548  0.28548
E71   E   0.10810  0.78548  0.71452
E72   E   0.10810  0.78548  0.78548
E73   E   0.12112  0.00000  0.30793
E74   E   0.12112  0.00000  0.69207
E75   E   0.12112  0.19207  0.50000
E76   E   0.12112  0.30793  0.00000
E77   E   0.12112  0.50000  0.19207
E78   E   0.12112  0.50000  0.80793
E79   E   0.12112  0.69207  0.00000
E80   E   0.12112  0.80793  0.50000
E81   E   0.14357  0.14357  0.25000
E82   E   0.14357  0.14357  0.75000
E83   E   0.14357  0.25000  0.14357
E84   E   0.14357  0.25000  0.35643
E85   E   0.14357  0.25000  0.64357
E86   E   0.14357  0.25000  0.85643
E87   E   0.14357  0.35643  0.25000
E88   E   0.14357  0.35643  0.75000
E89   E   0.14357  0.64357  0.25000
E90   E   0.14357  0.64357  0.75000
E91   E   0.14357  0.75000  0.14357
E92   E   0.14357  0.75000  0.35643
E93   E   0.14357  0.75000  0.64357
E94   E   0.14357  0.75000  0.85643
E95   E   0.14357  0.85643  0.25000
E96   E   0.14357  0.85643  0.75000
E97   E   0.15008  0.07913  0.27897
E98   E   0.15008  0.07913  0.72103
E99   E   0.15008  0.22103  0.42087
E100  E   0.15008  0.22103  0.57913
E101  E   0.15008  0.27897  0.07913
E102  E   0.15008  0.27897  0.92087
E103  E   0.15008  0.42087  0.22103
E104  E   0.15008  0.42087  0.77897
E105  E   0.15008  0.57913  0.22103
E106  E   0.15008  0.57913  0.77897
E107  E   0.15008  0.72103  0.07913
E108  E   0.15008  0.72103  0.92087
E109  E   0.15008  0.77897  0.42087
E110  E   0.15008  0.77897  0.57913
E111  E   0.15008  0.92087  0.27897
E112  E   0.15008  0.92087  0.72103
E113  E   0.15659  0.05017  0.34341
E114  E   0.15659  0.05017  0.65659
E115  E   0.15659  0.15659  0.44983
E116  E   0.15659  0.15659  0.55017
E117  E   0.15659  0.34341  0.05017
E118  E   0.15659  0.34341  0.94983
E119  E   0.15659  0.44983  0.15659
E120  E   0.15659  0.44983  0.84341
E121  E   0.15659  0.55017  0.15659
E122  E   0.15659  0.55017  0.84341
E123  E   0.15659  0.65659  0.05017
E124  E   0.15659  0.65659  0.94983
E125  E   0.15659  0.84341  0.44983
E126  E   0.15659  0.84341  0.55017
E127  E   0.15659  0.94983  0.34341
E128  E   0.15659  0.94983  0.65659
E129  E   0.19207  0.00000  0.37888
E130  E   0.19207  0.00000  0.62112
E131  E   0.19207  0.08564  0.41436
E132  E   0.19207  0.08564  0.58564
E133  E   0.19207  0.12112  0.50000
E134  E   0.19207  0.37888  0.00000
E135  E   0.19207  0.41436  0.08564
E136  E   0.19207  0.41436  0.91436
E137  E   0.19207  0.50000  0.12112
E138  E   0.19207  0.50000  0.87888
E139  E   0.19207  0.58564  0.08564
E140  E   0.19207  0.58564  0.91436
E141  E   0.19207  0.62112  0.00000
E142  E   0.19207  0.87888  0.50000
E143  E   0.19207  0.91436  0.41436
E144  E   0.19207  0.91436  0.58564
E145  E   0.21452  0.10810  0.21452
E146  E   0.21452  0.10810  0.28548
E147  E   0.21452  0.10810  0.71452
E148  E   0.21452  0.10810  0.78548
E149  E   0.21452  0.21452  0.10810
E150  E   0.21452  0.21452  0.39190
E151  E   0.21452  0.21452  0.60810
E152  E   0.21452  0.21452  0.89190
E153  E   0.21452  0.28548  0.10810
E154  E   0.21452  0.28548  0.39190
E155  E   0.21452  0.28548  0.60810
E156  E   0.21452  0.28548  0.89190
E157  E   0.21452  0.39190  0.21452
E158  E   0.21452  0.39190  0.28548
E159  E   0.21452  0.39190  0.71452
E160  E   0.21452  0.39190  0.78548
E161  E   0.21452  0.60810  0.21452
E162  E   0.21452  0.60810  0.28548
E163  E   0.21452  0.60810  0.71452
E164  E   0.21452  0.60810  0.78548
E165  E   0.21452  0.71452  0.10810
E166  E   0.21452  0.71452  0.39190
E167  E   0.21452  0.71452  0.60810
E168  E   0.21452  0.71452  0.89190
E169  E   0.21452  0.78548  0.10810
E170  E   0.21452  0.78548  0.39190
E171  E   0.21452  0.78548  0.60810
E172  E   0.21452  0.78548  0.89190
E173  E   0.21452  0.89190  0.21452
E174  E   0.21452  0.89190  0.28548
E175  E   0.21452  0.89190  0.71452
E176  E   0.21452  0.89190  0.78548
E177  E   0.22103  0.07913  0.34992
E178  E   0.22103  0.07913  0.65008
E179  E   0.22103  0.15008  0.42087
E180  E   0.22103  0.15008  0.57913
E181  E   0.22103  0.34992  0.07913
E182  E   0.22103  0.34992  0.92087
E183  E   0.22103  0.42087  0.15008
E184  E   0.22103  0.42087  0.84992
E185  E   0.22103  0.57913  0.15008
E186  E   0.22103  0.57913  0.84992
E187  E   0.22103  0.65008  0.07913
E188  E   0.22103  0.65008  0.92087
E189  E   0.22103  0.84992  0.42087
E190  E   0.22103  0.84992  0.57913
E191  E   0.22103  0.92087  0.34992
E192  E   0.22103  0.92087  0.65008
E193  E   0.25000  0.14357  0.14357
E194  E   0.25000  0.14357  0.35643
E195  E   0.25000  0.14357  0.64357
E196  E   0.25000  0.14357  0.85643
E197  E   0.25000  0.35643  0.14357
E198  E   0.25000  0.35643  0.35643
E199  E   0.25000  0.35643  0.64357
E200  E   0.25000  0.35643  0.85643
E201  E   0.25000  0.64357  0.14357
E202  E   0.25000  0.64357  0.35643
E203  E   0.25000  0.64357  0.64357
E204  E   0.25000  0.64357  0.85643
E205  E   0.25000  0.85643  0.14357
E206  E   0.25000  0.85643  0.35643
E207  E   0.25000  0.85643  0.64357
E208  E   0.25000  0.85643  0.85643
E209  E   0.27897  0.07913  0.15008
E210  E   0.27897  0.07913  0.84992
E211  E   0.27897  0.15008  0.07913
E212  E   0.27897  0.15008  0.92087
E213  E   0.27897  0.34992  0.42087
E214  E   0.27897  0.34992  0.57913
E215  E   0.27897  0.42087  0.34992
E216  E   0.27897  0.42087  0.65008
E217  E   0.27897  0.57913  0.34992
E218  E   0.27897  0.57913  0.65008
E219  E   0.27897  0.65008  0.42087
E220  E   0.27897  0.65008  0.57913
E221  E   0.27897  0.84992  0.07913
E222  E   0.27897  0.84992  0.92087
E223  E   0.27897  0.92087  0.15008
E224  E   0.27897  0.92087  0.84992
E225  E   0.28548  0.10810  0.21452
E226  E   0.28548  0.10810  0.28548
E227  E   0.28548  0.10810  0.71452
E228  E   0.28548  0.10810  0.78548
E229  E   0.28548  0.21452  0.10810
E230  E   0.28548  0.21452  0.39190
E231  E   0.28548  0.21452  0.60810
E232  E   0.28548  0.21452  0.89190
E233  E   0.28548  0.28548  0.10810
E234  E   0.28548  0.28548  0.39190
E235  E   0.28548  0.28548  0.60810
E236  E   0.28548  0.28548  0.89190
E237  E   0.28548  0.39190  0.21452
E238  E   0.28548  0.39190  0.28548
E239  E   0.28548  0.39190  0.71452
E240  E   0.28548  0.39190  0.78548
E241  E   0.28548  0.60810  0.21452
E242  E   0.28548  0.60810  0.28548
E243  E   0.28548  0.60810  0.71452
E244  E   0.28548  0.60810  0.78548
E245  E   0.28548  0.71452  0.10810
E246  E   0.28548  0.71452  0.39190
E247  E   0.28548  0.71452  0.60810
E248  E   0.28548  0.71452  0.89190
E249  E   0.28548  0.78548  0.10810
E250  E   0.28548  0.78548  0.39190
E251  E   0.28548  0.78548  0.60810
E252  E   0.28548  0.78548  0.89190
E253  E   0.28548  0.89190  0.21452
E254  E   0.28548  0.89190  0.28548
E255  E   0.28548  0.89190  0.71452
E256  E   0.28548  0.89190  0.78548
E257  E   0.30793  0.00000  0.12112
E258  E   0.30793  0.00000  0.87888
E259  E   0.30793  0.08564  0.08564
E260  E   0.30793  0.08564  0.91436
E261  E   0.30793  0.12112  0.00000
E262  E   0.30793  0.37888  0.50000
E263  E   0.30793  0.41436  0.41436
E264  E   0.30793  0.41436  0.58564
E265  E   0.30793  0.50000  0.37888
E266  E   0.30793  0.50000  0.62112
E267  E   0.30793  0.58564  0.41436
E268  E   0.30793  0.58564  0.58564
E269  E   0.30793  0.62112  0.50000
E270  E   0.30793  0.87888  0.00000
E271  E   0.30793  0.91436  0.08564
E272  E   0.30793  0.91436  0.91436
E273  E   0.34341  0.05017  0.15659
E274  E   0.34341  0.05017  0.84341
E275  E   0.34341  0.15659  0.05017
E276  E   0.34341  0.15659  0.94983
E277  E   0.34341  0.34341  0.44983
E278  E   0.34341  0.34341  0.55017
E279  E   0.34341  0.44983  0.34341
E280  E   0.34341  0.44983  0.65659
E281  E   0.34341  0.55017  0.34341
E282  E   0.34341  0.55017  0.65659
E283  E   0.34341  0.65659  0.44983
E284  E   0.34341  0.65659  0.55017
E285  E   0.34341  0.84341  0.05017
E286  E   0.34341  0.84341  0.94983
E287  E   0.34341  0.94983  0.15659
E288  E   0.34341  0.94983  0.84341
E289  E   0.34992  0.07913  0.22103
E290  E   0.34992  0.07913  0.77897
E291  E   0.34992  0.22103  0.07913
E292  E   0.34992  0.22103  0.92087
E293  E   0.34992  0.27897  0.42087
E294  E   0.34992  0.27897  0.57913
E295  E   0.34992  0.42087  0.27897
E296  E   0.34992  0.42087  0.72103
E297  E   0.34992  0.57913  0.27897
E298  E   0.34992  0.57913  0.72103
E299  E   0.34992  0.72103  0.42087
E300  E   0.34992  0.72103  0.57913
E301  E   0.34992  0.77897  0.07913
E302  E   0.34992  0.77897  0.92087
E303  E   0.34992  0.92087  0.22103
E304  E   0.34992  0.92087  0.77897
E305  E   0.35643  0.14357  0.25000
E306  E   0.35643  0.14357  0.75000
E307  E   0.35643  0.25000  0.14357
E308  E   0.35643  0.25000  0.35643
E309  E   0.35643  0.25000  0.64357
E310  E   0.35643  0.25000  0.85643
E311  E   0.35643  0.35643  0.25000
E312  E   0.35643  0.35643  0.75000
E313  E   0.35643  0.64357  0.25000
E314  E   0.35643  0.64357  0.75000
E315  E   0.35643  0.75000  0.14357
E316  E   0.35643  0.75000  0.35643
E317  E   0.35643  0.75000  0.64357
E318  E   0.35643  0.75000  0.85643
E319  E   0.35643  0.85643  0.25000
E320  E   0.35643  0.85643  0.75000
E321  E   0.37888  0.00000  0.19207
E322  E   0.37888  0.00000  0.80793
E323  E   0.37888  0.19207  0.00000
E324  E   0.37888  0.30793  0.50000
E325  E   0.37888  0.50000  0.30793
E326  E   0.37888  0.50000  0.69207
E327  E   0.37888  0.69207  0.50000
E328  E   0.37888  0.80793  0.00000
E329  E   0.39190  0.21452  0.21452
E330  E   0.39190  0.21452  0.28548
E331  E   0.39190  0.21452  0.71452
E332  E   0.39190  0.21452  0.78548
E333  E   0.39190  0.28548  0.21452
E334  E   0.39190  0.28548  0.28548
E335  E   0.39190  0.28548  0.71452
E336  E   0.39190  0.28548  0.78548
E337  E   0.39190  0.71452  0.21452
E338  E   0.39190  0.71452  0.28548
E339  E   0.39190  0.71452  0.71452
E340  E   0.39190  0.71452  0.78548
E341  E   0.39190  0.78548  0.21452
E342  E   0.39190  0.78548  0.28548
E343  E   0.39190  0.78548  0.71452
E344  E   0.39190  0.78548  0.78548
E345  E   0.41436  0.08564  0.19207
E346  E   0.41436  0.08564  0.80793
E347  E   0.41436  0.19207  0.08564
E348  E   0.41436  0.19207  0.91436
E349  E   0.41436  0.30793  0.41436
E350  E   0.41436  0.30793  0.58564
E351  E   0.41436  0.41436  0.30793
E352  E   0.41436  0.41436  0.69207
E353  E   0.41436  0.58564  0.30793
E354  E   0.41436  0.58564  0.69207
E355  E   0.41436  0.69207  0.41436
E356  E   0.41436  0.69207  0.58564
E357  E   0.41436  0.80793  0.08564
E358  E   0.41436  0.80793  0.91436
E359  E   0.41436  0.91436  0.19207
E360  E   0.41436  0.91436  0.80793
E361  E   0.42087  0.15008  0.22103
E362  E   0.42087  0.15008  0.77897
E363  E   0.42087  0.22103  0.15008
E364  E   0.42087  0.22103  0.84992
E365  E   0.42087  0.27897  0.34992
E366  E   0.42087  0.27897  0.65008
E367  E   0.42087  0.34992  0.27897
E368  E   0.42087  0.34992  0.72103
E369  E   0.42087  0.65008  0.27897
E370  E   0.42087  0.65008  0.72103
E371  E   0.42087  0.72103  0.34992
E372  E   0.42087  0.72103  0.65008
E373  E   0.42087  0.77897  0.15008
E374  E   0.42087  0.77897  0.84992
E375  E   0.42087  0.84992  0.22103
E376  E   0.42087  0.84992  0.77897
E377  E   0.44983  0.15659  0.15659
E378  E   0.44983  0.15659  0.84341
E379  E   0.44983  0.34341  0.34341
E380  E   0.44983  0.34341  0.65659
E381  E   0.44983  0.65659  0.34341
E382  E   0.44983  0.65659  0.65659
E383  E   0.44983  0.84341  0.15659
E384  E   0.44983  0.84341  0.84341
E385  E   0.50000  0.12112  0.19207
E386  E   0.50000  0.12112  0.80793
E387  E   0.50000  0.19207  0.12112
E388  E   0.50000  0.19207  0.87888
E389  E   0.50000  0.30793  0.37888
E390  E   0.50000  0.30793  0.62112
E391  E   0.50000  0.37888  0.30793
E392  E   0.50000  0.37888  0.69207
E393  E   0.50000  0.62112  0.30793
E394  E   0.50000  0.62112  0.69207
E395  E   0.50000  0.69207  0.37888
E396  E   0.50000  0.69207  0.62112
E397  E   0.50000  0.80793  0.12112
E398  E   0.50000  0.80793  0.87888
E399  E   0.50000  0.87888  0.19207
E400  E   0.50000  0.87888  0.80793
E401  E   0.55017  0.15659  0.15659
E402  E   0.55017  0.15659  0.84341
E403  E   0.55017  0.34341  0.34341
E404  E   0.55017  0.34341  0.65659
E405  E   0.55017  0.65659  0.34341
E406  E   0.55017  0.65659  0.65659
E407  E   0.55017  0.84341  0.15659
E408  E   0.55017  0.84341  0.84341
E409  E   0.57913  0.15008  0.22103
E410  E   0.57913  0.15008  0.77897
E411  E   0.57913  0.22103  0.15008
E412  E   0.57913  0.22103  0.84992
E413  E   0.57913  0.27897  0.34992
E414  E   0.57913  0.27897  0.65008
E415  E   0.57913  0.34992  0.27897
E416  E   0.57913  0.34992  0.72103
E417  E   0.57913  0.65008  0.27897
E418  E   0.57913  0.65008  0.72103
E419  E   0.57913  0.72103  0.34992
E420  E   0.57913  0.72103  0.65008
E421  E   0.57913  0.77897  0.15008
E422  E   0.57913  0.77897  0.84992
E423  E   0.57913  0.84992  0.22103
E424  E   0.57913  0.84992  0.77897
E425  E   0.58564  0.08564  0.19207
E426  E   0.58564  0.08564  0.80793
E427  E   0.58564  0.19207  0.08564
E428  E   0.58564  0.19207  0.91436
E429  E   0.58564  0.30793  0.41436
E430  E   0.58564  0.30793  0.58564
E431  E   0.58564  0.41436  0.30793
E432  E   0.58564  0.41436  0.69207
E433  E   0.58564  0.58564  0.30793
E434  E   0.58564  0.58564  0.69207
E435  E   0.58564  0.69207  0.41436
E436  E   0.58564  0.69207  0.58564
E437  E   0.58564  0.80793  0.08564
E438  E   0.58564  0.80793  0.91436
E439  E   0.58564  0.91436  0.19207
E440  E   0.58564  0.91436  0.80793
E441  E   0.60810  0.21452  0.21452
E442  E   0.60810  0.21452  0.28548
E443  E   0.60810  0.21452  0.71452
E444  E   0.60810  0.21452  0.78548
E445  E   0.60810  0.28548  0.21452
E446  E   0.60810  0.28548  0.28548
E447  E   0.60810  0.28548  0.71452
E448  E   0.60810  0.28548  0.78548
E449  E   0.60810  0.71452  0.21452
E450  E   0.60810  0.71452  0.28548
E451  E   0.60810  0.71452  0.71452
E452  E   0.60810  0.71452  0.78548
E453  E   0.60810  0.78548  0.21452
E454  E   0.60810  0.78548  0.28548
E455  E   0.60810  0.78548  0.71452
E456  E   0.60810  0.78548  0.78548
E457  E   0.62112  0.00000  0.19207
E458  E   0.62112  0.00000  0.80793
E459  E   0.62112  0.19207  0.00000
E460  E   0.62112  0.30793  0.50000
E461  E   0.62112  0.50000  0.30793
E462  E   0.62112  0.50000  0.69207
E463  E   0.62112  0.69207  0.50000
E464  E   0.62112  0.80793  0.00000
E465  E   0.64357  0.14357  0.25000
E466  E   0.64357  0.14357  0.75000
E467  E   0.64357  0.25000  0.14357
E468  E   0.64357  0.25000  0.35643
E469  E   0.64357  0.25000  0.64357
E470  E   0.64357  0.25000  0.85643
E471  E   0.64357  0.35643  0.25000
E472  E   0.64357  0.35643  0.75000
E473  E   0.64357  0.64357  0.25000
E474  E   0.64357  0.64357  0.75000
E475  E   0.64357  0.75000  0.14357
E476  E   0.64357  0.75000  0.35643
E477  E   0.64357  0.75000  0.64357
E478  E   0.64357  0.75000  0.85643
E479  E   0.64357  0.85643  0.25000
E480  E   0.64357  0.85643  0.75000
E481  E   0.65008  0.07913  0.22103
E482  E   0.65008  0.07913  0.77897
E483  E   0.65008  0.22103  0.07913
E484  E   0.65008  0.22103  0.92087
E485  E   0.65008  0.27897  0.42087
E486  E   0.65008  0.27897  0.57913
E487  E   0.65008  0.42087  0.27897
E488  E   0.65008  0.42087  0.72103
E489  E   0.65008  0.57913  0.27897
E490  E   0.65008  0.57913  0.72103
E491  E   0.65008  0.72103  0.42087
E492  E   0.65008  0.72103  0.57913
E493  E   0.65008  0.77897  0.07913
E494  E   0.65008  0.77897  0.92087
E495  E   0.65008  0.92087  0.22103
E496  E   0.65008  0.92087  0.77897
E497  E   0.65659  0.05017  0.15659
E498  E   0.65659  0.05017  0.84341
E499  E   0.65659  0.15659  0.05017
E500  E   0.65659  0.15659  0.94983
E501  E   0.65659  0.34341  0.44983
E502  E   0.65659  0.34341  0.55017
E503  E   0.65659  0.44983  0.34341
E504  E   0.65659  0.44983  0.65659
E505  E   0.65659  0.55017  0.34341
E506  E   0.65659  0.55017  0.65659
E507  E   0.65659  0.65659  0.44983
E508  E   0.65659  0.65659  0.55017
E509  E   0.65659  0.84341  0.05017
E510  E   0.65659  0.84341  0.94983
E511  E   0.65659  0.94983  0.15659
E512  E   0.65659  0.94983  0.84341
E513  E   0.69207  0.00000  0.12112
E514  E   0.69207  0.00000  0.87888
E515  E   0.69207  0.08564  0.08564
E516  E   0.69207  0.08564  0.91436
E517  E   0.69207  0.12112  0.00000
E518  E   0.69207  0.37888  0.50000
E519  E   0.69207  0.41436  0.41436
E520  E   0.69207  0.41436  0.58564
E521  E   0.69207  0.50000  0.37888
E522  E   0.69207  0.50000  0.62112
E523  E   0.69207  0.58564  0.41436
E524  E   0.69207  0.58564  0.58564
E525  E   0.69207  0.62112  0.50000
E526  E   0.69207  0.87888  0.00000
E527  E   0.69207  0.91436  0.08564
E528  E   0.69207  0.91436  0.91436
E529  E   0.71452  0.10810  0.21452
E530  E   0.71452  0.10810  0.28548
E531  E   0.71452  0.10810  0.71452
E532  E   0.71452  0.10810  0.78548
E533  E   0.71452  0.21452  0.10810
E534  E   0.71452  0.21452  0.39190
E535  E   0.71452  0.21452  0.60810
E536  E   0.71452  0.21452  0.89190
E537  E   0.71452  0.28548  0.10810
E538  E   0.71452  0.28548  0.39190
E539  E   0.71452  0.28548  0.60810
E540  E   0.71452  0.28548  0.89190
E541  E   0.71452  0.39190  0.21452
E542  E   0.71452  0.39190  0.28548
E543  E   0.71452  0.39190  0.71452
E544  E   0.71452  0.39190  0.78548
E545  E   0.71452  0.60810  0.21452
E546  E   0.71452  0.60810  0.28548
E547  E   0.71452  0.60810  0.71452
E548  E   0.71452  0.60810  0.78548
E549  E   0.71452  0.71452  0.10810
E550  E   0.71452  0.71452  0.39190
E551  E   0.71452  0.71452  0.60810
E552  E   0.71452  0.71452  0.89190
E553  E   0.71452  0.78548  0.10810
E554  E   0.71452  0.78548  0.39190
E555  E   0.71452  0.78548  0.60810
E556  E   0.71452  0.78548  0.89190
E557  E   0.71452  0.89190  0.21452
E558  E   0.71452  0.89190  0.28548
E559  E   0.71452  0.89190  0.71452
E560  E   0.71452  0.89190  0.78548
E561  E   0.72103  0.07913  0.15008
E562  E   0.72103  0.07913  0.84992
E563  E   0.72103  0.15008  0.07913
E564  E   0.72103  0.15008  0.92087
E565  E   0.72103  0.34992  0.42087
E566  E   0.72103  0.34992  0.57913
E567  E   0.72103  0.42087  0.34992
E568  E   0.72103  0.42087  0.65008
E569  E   0.72103  0.57913  0.34992
E570  E   0.72103  0.57913  0.65008
E571  E   0.72103  0.65008  0.42087
E572  E   0.72103  0.65008  0.57913
E573  E   0.72103  0.84992  0.07913
E574  E   0.72103  0.84992  0.92087
E575  E   0.72103  0.92087  0.15008
E576  E   0.72103  0.92087  0.84992
E577  E   0.75000  0.14357  0.14357
E578  E   0.75000  0.14357  0.35643
E579  E   0.75000  0.14357  0.64357
E580  E   0.75000  0.14357  0.85643
E581  E   0.75000  0.35643  0.14357
E582  E   0.75000  0.35643  0.35643
E583  E   0.75000  0.35643  0.64357
E584  E   0.75000  0.35643  0.85643
E585  E   0.75000  0.64357  0.14357
E586  E   0.75000  0.64357  0.35643
E587  E   0.75000  0.64357  0.64357
E588  E   0.75000  0.64357  0.85643
E589  E   0.75000  0.85643  0.14357
E590  E   0.75000  0.85643  0.35643
E591  E   0.75000  0.85643  0.64357
E592  E   0.75000  0.85643  0.85643
E593  E   0.77897  0.07913  0.34992
E594  E   0.77897  0.07913  0.65008
E595  E   0.77897  0.15008  0.42087
E596  E   0.77897  0.15008  0.57913
E597  E   0.77897  0.34992  0.07913
E598  E   0.77897  0.34992  0.92087
E599  E   0.77897  0.42087  0.15008
E600  E   0.77897  0.42087  0.84992
E601  E   0.77897  0.57913  0.15008
E602  E   0.77897  0.57913  0.84992
E603  E   0.77897  0.65008  0.07913
E604  E   0.77897  0.65008  0.92087
E605  E   0.77897  0.84992  0.42087
E606  E   0.77897  0.84992  0.57913
E607  E   0.77897  0.92087  0.34992
E608  E   0.77897  0.92087  0.65008
E609  E   0.78548  0.10810  0.21452
E610  E   0.78548  0.10810  0.28548
E611  E   0.78548  0.10810  0.71452
E612  E   0.78548  0.10810  0.78548
E613  E   0.78548  0.21452  0.10810
E614  E   0.78548  0.21452  0.39190
E615  E   0.78548  0.21452  0.60810
E616  E   0.78548  0.21452  0.89190
E617  E   0.78548  0.28548  0.10810
E618  E   0.78548  0.28548  0.39190
E619  E   0.78548  0.28548  0.60810
E620  E   0.78548  0.28548  0.89190
E621  E   0.78548  0.39190  0.21452
E622  E   0.78548  0.39190  0.28548
E623  E   0.78548  0.39190  0.71452
E624  E   0.78548  0.39190  0.78548
E625  E   0.78548  0.60810  0.21452
E626  E   0.78548  0.60810  0.28548
E627  E   0.78548  0.60810  0.71452
E628  E   0.78548  0.60810  0.78548
E629  E   0.78548  0.71452  0.10810
E630  E   0.78548  0.71452  0.39190
E631  E   0.78548  0.71452  0.60810
E632  E   0.78548  0.71452  0.89190
E633  E   0.78548  0.78548  0.10810
E634  E   0.78548  0.78548  0.39190
E635  E   0.78548  0.78548  0.60810
E636  E   0.78548  0.78548  0.89190
E637  E   0.78548  0.89190  0.21452
E638  E   0.78548  0.89190  0.28548
E639  E   0.78548  0.89190  0.71452
E640  E   0.78548  0.89190  0.78548
E641  E   0.80793  0.00000  0.37888
E642  E   0.80793  0.00000  0.62112
E643  E   0.80793  0.08564  0.41436
E644  E   0.80793  0.08564  0.58564
E645  E   0.80793  0.12112  0.50000
E646  E   0.80793  0.37888  0.00000
E647  E   0.80793  0.41436  0.08564
E648  E   0.80793  0.41436  0.91436
E649  E   0.80793  0.50000  0.12112
E650  E   0.80793  0.50000  0.87888
E651  E   0.80793  0.58564  0.08564
E652  E   0.80793  0.58564  0.91436
E653  E   0.80793  0.62112  0.00000
E654  E   0.80793  0.87888  0.50000
E655  E   0.80793  0.91436  0.41436
E656  E   0.80793  0.91436  0.58564
E657  E   0.84341  0.05017  0.34341
E658  E   0.84341  0.05017  0.65659
E659  E   0.84341  0.15659  0.44983
E660  E   0.84341  0.15659  0.55017
E661  E   0.84341  0.34341  0.05017
E662  E   0.84341  0.34341  0.94983
E663  E   0.84341  0.44983  0.15659
E664  E   0.84341  0.44983  0.84341
E665  E   0.84341  0.55017  0.15659
E666  E   0.84341  0.55017  0.84341
E667  E   0.84341  0.65659  0.05017
E668  E   0.84341  0.65659  0.94983
E669  E   0.84341  0.84341  0.44983
E670  E   0.84341  0.84341  0.55017
E671  E   0.84341  0.94983  0.34341
E672  E   0.84341  0.94983  0.65659
E673  E   0.84992  0.07913  0.27897
E674  E   0.84992  0.07913  0.72103
E675  E   0.84992  0.22103  0.42087
E676  E   0.84992  0.22103  0.57913
E677  E   0.84992  0.27897  0.07913
E678  E   0.84992  0.27897  0.92087
E679  E   0.84992  0.42087  0.22103
E680  E   0.84992  0.42087  0.77897
E681  E   0.84992  0.57913  0.22103
E682  E   0.84992  0.57913  0.77897
E683  E   0.84992  0.72103  0.07913
E684  E   0.84992  0.72103  0.92087
E685  E   0.84992  0.77897  0.42087
E686  E   0.84992  0.77897  0.57913
E687  E   0.84992  0.92087  0.27897
E688  E   0.84992  0.92087  0.72103
E689  E   0.85643  0.14357  0.25000
E690  E   0.85643  0.14357  0.75000
E691  E   0.85643  0.25000  0.14357
E692  E   0.85643  0.25000  0.35643
E693  E   0.85643  0.25000  0.64357
E694  E   0.85643  0.25000  0.85643
E695  E   0.85643  0.35643  0.25000
E696  E   0.85643  0.35643  0.75000
E697  E   0.85643  0.64357  0.25000
E698  E   0.85643  0.64357  0.75000
E699  E   0.85643  0.75000  0.14357
E700  E   0.85643  0.75000  0.35643
E701  E   0.85643  0.75000  0.64357
E702  E   0.85643  0.75000  0.85643
E703  E   0.85643  0.85643  0.25000
E704  E   0.85643  0.85643  0.75000
E705  E   0.87888  0.00000  0.30793
E706  E   0.87888  0.00000  0.69207
E707  E   0.87888  0.19207  0.50000
E708  E   0.87888  0.30793  0.00000
E709  E   0.87888  0.50000  0.19207
E710  E   0.87888  0.50000  0.80793
E711  E   0.87888  0.69207  0.00000
E712  E   0.87888  0.80793  0.50000
E713  E   0.89190  0.21452  0.21452
E714  E   0.89190  0.21452  0.28548
E715  E   0.89190  0.21452  0.71452
E716  E   0.89190  0.21452  0.78548
E717  E   0.89190  0.28548  0.21452
E718  E   0.89190  0.28548  0.28548
E719  E   0.89190  0.28548  0.71452
E720  E   0.89190  0.28548  0.78548
E721  E   0.89190  0.71452  0.21452
E722  E   0.89190  0.71452  0.28548
E723  E   0.89190  0.71452  0.71452
E724  E   0.89190  0.71452  0.78548
E725  E   0.89190  0.78548  0.21452
E726  E   0.89190  0.78548  0.28548
E727  E   0.89190  0.78548  0.71452
E728  E   0.89190  0.78548  0.78548
E729  E   0.91436  0.08564  0.30793
E730  E   0.91436  0.08564  0.69207
E731  E   0.91436  0.19207  0.41436
E732  E   0.91436  0.19207  0.58564
E733  E   0.91436  0.30793  0.08564
E734  E   0.91436  0.30793  0.91436
E735  E   0.91436  0.41436  0.19207
E736  E   0.91436  0.41436  0.80793
E737  E   0.91436  0.58564  0.19207
E738  E   0.91436  0.58564  0.80793
E739  E   0.91436  0.69207  0.08564
E740  E   0.91436  0.69207  0.91436
E741  E   0.91436  0.80793  0.41436
E742  E   0.91436  0.80793  0.58564
E743  E   0.91436  0.91436  0.30793
E744  E   0.91436  0.91436  0.69207
E745  E   0.92087  0.15008  0.27897
E746  E   0.92087  0.15008  0.72103
E747  E   0.92087  0.22103  0.34992
E748  E   0.92087  0.22103  0.65008
E749  E   0.92087  0.27897  0.15008
E750  E   0.92087  0.27897  0.84992
E751  E   0.92087  0.34992  0.22103
E752  E   0.92087  0.34992  0.77897
E753  E   0.92087  0.65008  0.22103
E754  E   0.92087  0.65008  0.77897
E755  E   0.92087  0.72103  0.15008
E756  E   0.92087  0.72103  0.84992
E757  E   0.92087  0.77897  0.34992
E758  E   0.92087  0.77897  0.65008
E759  E   0.92087  0.84992  0.27897
E760  E   0.92087  0.84992  0.72103
E761  E   0.94983  0.15659  0.34341
E762  E   0.94983  0.15659  0.65659
E763  E   0.94983  0.34341  0.15659
E764  E   0.94983  0.34341  0.84341
E765  E   0.94983  0.65659  0.15659
E766  E   0.94983  0.65659  0.84341
E767  E   0.94983  0.84341  0.34341
E768  E   0.94983  0.84341  0.65659
loop_
