data_ttt_F-43m  hall_number: 512, V_con: 12, EC_con: 3
_audit_creation_date              2025-03-05
_audit_creation_method            'MOFbuilder_1.0'
_symmetry_space_group_name_H-M    'P1'
_symmetry_Int_Tables_number       1
_symmetry_cell_setting            triclinic
loop_
_symmetry_equiv_pos_as_xyz
  x,y,z
_cell_length_a                    24.4949
_cell_length_b                    24.4949
_cell_length_c                    24.4949
_cell_angle_alpha                 90.0
_cell_angle_beta                  90.0
_cell_angle_gamma                 90.0
loop_
_atom_site_label
_atom_site_type_symbol
_atom_site_fract_x
_atom_site_fract_y
_atom_site_fract_z
V1    V   0.00000  0.00000  0.00000
V2    V   0.00000  0.50000  0.50000
V3    V   0.50000  0.00000  0.50000
V4    V   0.50000  0.50000  0.00000
EC1    EC   0.16667  0.16667  0.66667
EC2    EC   0.16667  0.33333  0.83333
EC3    EC   0.16667  0.66667  0.16667
EC4    EC   0.16667  0.83333  0.33333
EC5    EC   0.16667  0.16667  0.66667
EC6    EC   0.16667  0.16667  0.66667
EC7    EC   0.16667  0.33333  0.83333
EC8    EC   0.16667  0.66667  0.16667
EC9    EC   0.16667  0.66667  0.16667
EC10   EC   0.16667  0.83333  0.33333
EC11   EC   0.33333  0.16667  0.83333
EC12   EC   0.33333  0.16667  0.83333
EC13   EC   0.33333  0.33333  0.66667
EC14   EC   0.33333  0.66667  0.33333
EC15   EC   0.33333  0.83333  0.16667
EC16   EC   0.33333  0.83333  0.16667
EC17   EC   0.66667  0.16667  0.16667
EC18   EC   0.66667  0.16667  0.16667
EC19   EC   0.66667  0.16667  0.16667
EC20   EC   0.66667  0.33333  0.33333
EC21   EC   0.66667  0.66667  0.66667
EC22   EC   0.66667  0.83333  0.83333
EC23   EC   0.83333  0.16667  0.33333
EC24   EC   0.83333  0.16667  0.33333
EC25   EC   0.83333  0.33333  0.16667
EC26   EC   0.83333  0.33333  0.16667
EC27   EC   0.83333  0.66667  0.83333
EC28   EC   0.83333  0.83333  0.66667
E1    E   0.08333  0.08333  0.83333
E2    E   0.08333  0.16667  0.91667
E3    E   0.08333  0.33333  0.58333
E4    E   0.08333  0.41667  0.66667
E5    E   0.08333  0.58333  0.33333
E6    E   0.08333  0.66667  0.41667
E7    E   0.08333  0.83333  0.08333
E8    E   0.08333  0.91667  0.16667
E9    E   0.08333  0.08333  0.83333
E10   E   0.08333  0.16667  0.91667
E11   E   0.08333  0.33333  0.58333
E12   E   0.08333  0.41667  0.66667
E13   E   0.08333  0.58333  0.33333
E14   E   0.08333  0.66667  0.41667
E15   E   0.08333  0.83333  0.08333
E16   E   0.08333  0.91667  0.16667
E17   E   0.16667  0.08333  0.91667
E18   E   0.16667  0.08333  0.91667
E19   E   0.16667  0.41667  0.58333
E20   E   0.16667  0.58333  0.41667
E21   E   0.16667  0.91667  0.08333
E22   E   0.16667  0.91667  0.08333
E23   E   0.33333  0.08333  0.58333
E24   E   0.33333  0.08333  0.58333
E25   E   0.33333  0.41667  0.91667
E26   E   0.33333  0.58333  0.08333
E27   E   0.33333  0.58333  0.08333
E28   E   0.33333  0.91667  0.41667
E29   E   0.41667  0.08333  0.66667
E30   E   0.41667  0.08333  0.66667
E31   E   0.41667  0.16667  0.58333
E32   E   0.41667  0.33333  0.91667
E33   E   0.41667  0.41667  0.83333
E34   E   0.41667  0.58333  0.16667
E35   E   0.41667  0.66667  0.08333
E36   E   0.41667  0.66667  0.08333
E37   E   0.41667  0.83333  0.41667
E38   E   0.41667  0.91667  0.33333
E39   E   0.58333  0.08333  0.33333
E40   E   0.58333  0.08333  0.33333
E41   E   0.58333  0.16667  0.41667
E42   E   0.58333  0.33333  0.08333
E43   E   0.58333  0.33333  0.08333
E44   E   0.58333  0.41667  0.16667
E45   E   0.58333  0.58333  0.83333
E46   E   0.58333  0.66667  0.91667
E47   E   0.58333  0.83333  0.58333
E48   E   0.58333  0.91667  0.66667
E49   E   0.66667  0.08333  0.41667
E50   E   0.66667  0.08333  0.41667
E51   E   0.66667  0.41667  0.08333
E52   E   0.66667  0.41667  0.08333
E53   E   0.66667  0.58333  0.91667
E54   E   0.66667  0.91667  0.58333
E55   E   0.83333  0.08333  0.08333
E56   E   0.83333  0.08333  0.08333
E57   E   0.83333  0.41667  0.41667
E58   E   0.83333  0.58333  0.58333
E59   E   0.83333  0.91667  0.91667
E60   E   0.91667  0.08333  0.16667
E61   E   0.91667  0.08333  0.16667
E62   E   0.91667  0.16667  0.08333
E63   E   0.91667  0.16667  0.08333
E64   E   0.91667  0.33333  0.41667
E65   E   0.91667  0.41667  0.33333
E66   E   0.91667  0.58333  0.66667
E67   E   0.91667  0.66667  0.58333
E68   E   0.91667  0.83333  0.91667
E69   E   0.91667  0.91667  0.83333
loop_
