data_twf-a_Im-3m  hall_number: 529, V_con: 4, EC_con: 4
_audit_creation_date              2025-03-05
_audit_creation_method            'MOFbuilder_1.0'
_symmetry_space_group_name_H-M    'P1'
_symmetry_Int_Tables_number       1
_symmetry_cell_setting            triclinic
loop_
_symmetry_equiv_pos_as_xyz
  x,y,z
_cell_length_a                    56.9243
_cell_length_b                    56.9243
_cell_length_c                    56.9243
_cell_angle_alpha                 90.0
_cell_angle_beta                  90.0
_cell_angle_gamma                 90.0
loop_
_atom_site_label
_atom_site_type_symbol
_atom_site_fract_x
_atom_site_fract_y
_atom_site_fract_z
V1    V   0.00000  0.12422  0.24844
V2    V   0.00000  0.12422  0.75156
V3    V   0.00000  0.24844  0.12422
V4    V   0.00000  0.24844  0.87578
V5    V   0.00000  0.75156  0.12422
V6    V   0.00000  0.75156  0.87578
V7    V   0.00000  0.87578  0.24844
V8    V   0.00000  0.87578  0.75156
V9    V   0.12422  0.00000  0.24844
V10   V   0.12422  0.00000  0.75156
V11   V   0.12422  0.24844  0.00000
V12   V   0.12422  0.75156  0.00000
V13   V   0.24844  0.00000  0.12422
V14   V   0.24844  0.00000  0.87578
V15   V   0.24844  0.12422  0.00000
V16   V   0.24844  0.87578  0.00000
V17   V   0.25156  0.37578  0.50000
V18   V   0.25156  0.50000  0.37578
V19   V   0.25156  0.50000  0.62422
V20   V   0.25156  0.62422  0.50000
V21   V   0.37578  0.25156  0.50000
V22   V   0.37578  0.50000  0.25156
V23   V   0.37578  0.50000  0.74844
V24   V   0.37578  0.74844  0.50000
V25   V   0.50000  0.25156  0.37578
V26   V   0.50000  0.25156  0.62422
V27   V   0.50000  0.37578  0.25156
V28   V   0.50000  0.37578  0.74844
V29   V   0.50000  0.62422  0.25156
V30   V   0.50000  0.62422  0.74844
V31   V   0.50000  0.74844  0.37578
V32   V   0.50000  0.74844  0.62422
V33   V   0.62422  0.25156  0.50000
V34   V   0.62422  0.50000  0.25156
V35   V   0.62422  0.50000  0.74844
V36   V   0.62422  0.74844  0.50000
V37   V   0.74844  0.37578  0.50000
V38   V   0.74844  0.50000  0.37578
V39   V   0.74844  0.50000  0.62422
V40   V   0.74844  0.62422  0.50000
V41   V   0.75156  0.00000  0.12422
V42   V   0.75156  0.00000  0.87578
V43   V   0.75156  0.12422  0.00000
V44   V   0.75156  0.87578  0.00000
V45   V   0.87578  0.00000  0.24844
V46   V   0.87578  0.00000  0.75156
V47   V   0.87578  0.24844  0.00000
V48   V   0.87578  0.75156  0.00000
EC1    EC   0.00000  0.18789  0.41216
EC2    EC   0.00000  0.18789  0.58784
EC3    EC   0.00000  0.41216  0.18789
EC4    EC   0.00000  0.41216  0.81211
EC5    EC   0.00000  0.58784  0.18789
EC6    EC   0.00000  0.58784  0.81211
EC7    EC   0.00000  0.81211  0.41216
EC8    EC   0.00000  0.81211  0.58784
EC9    EC   0.08784  0.31211  0.50000
EC10   EC   0.08784  0.50000  0.31211
EC11   EC   0.08784  0.50000  0.68789
EC12   EC   0.08784  0.68789  0.50000
EC13   EC   0.18789  0.00000  0.41216
EC14   EC   0.18789  0.00000  0.58784
EC15   EC   0.18789  0.41216  0.00000
EC16   EC   0.18789  0.58784  0.00000
EC17   EC   0.31211  0.08784  0.50000
EC18   EC   0.31211  0.50000  0.08784
EC19   EC   0.31211  0.50000  0.91216
EC20   EC   0.31211  0.91216  0.50000
EC21   EC   0.41216  0.00000  0.18789
EC22   EC   0.41216  0.00000  0.81211
EC23   EC   0.41216  0.18789  0.00000
EC24   EC   0.41216  0.81211  0.00000
EC25   EC   0.50000  0.08784  0.31211
EC26   EC   0.50000  0.08784  0.68789
EC27   EC   0.50000  0.31211  0.08784
EC28   EC   0.50000  0.31211  0.91216
EC29   EC   0.50000  0.68789  0.08784
EC30   EC   0.50000  0.68789  0.91216
EC31   EC   0.50000  0.91216  0.31211
EC32   EC   0.50000  0.91216  0.68789
EC33   EC   0.58784  0.00000  0.18789
EC34   EC   0.58784  0.00000  0.81211
EC35   EC   0.58784  0.18789  0.00000
EC36   EC   0.58784  0.81211  0.00000
EC37   EC   0.68789  0.08784  0.50000
EC38   EC   0.68789  0.50000  0.08784
EC39   EC   0.68789  0.50000  0.91216
EC40   EC   0.68789  0.91216  0.50000
EC41   EC   0.81211  0.00000  0.41216
EC42   EC   0.81211  0.00000  0.58784
EC43   EC   0.81211  0.41216  0.00000
EC44   EC   0.81211  0.58784  0.00000
EC45   EC   0.91216  0.31211  0.50000
EC46   EC   0.91216  0.50000  0.31211
EC47   EC   0.91216  0.50000  0.68789
EC48   EC   0.91216  0.68789  0.50000
E1    E   0.00000  0.15605  0.33030
E2    E   0.00000  0.15605  0.66970
E3    E   0.00000  0.18633  0.18633
E4    E   0.00000  0.18633  0.81367
E5    E   0.00000  0.18789  0.50000
E6    E   0.00000  0.31211  0.50000
E7    E   0.00000  0.33030  0.15605
E8    E   0.00000  0.33030  0.84395
E9    E   0.00000  0.50000  0.18789
E10   E   0.00000  0.50000  0.31211
E11   E   0.00000  0.50000  0.68789
E12   E   0.00000  0.50000  0.81211
E13   E   0.00000  0.66970  0.15605
E14   E   0.00000  0.66970  0.84395
E15   E   0.00000  0.68789  0.50000
E16   E   0.00000  0.81211  0.50000
E17   E   0.00000  0.81367  0.18633
E18   E   0.00000  0.81367  0.81367
E19   E   0.00000  0.84395  0.33030
E20   E   0.00000  0.84395  0.66970
E21   E   0.04392  0.25000  0.45608
E22   E   0.04392  0.25000  0.54392
E23   E   0.04392  0.45608  0.25000
E24   E   0.04392  0.45608  0.75000
E25   E   0.04392  0.54392  0.25000
E26   E   0.04392  0.54392  0.75000
E27   E   0.04392  0.75000  0.45608
E28   E   0.04392  0.75000  0.54392
E29   E   0.04392  0.25000  0.45608
E30   E   0.04392  0.25000  0.54392
E31   E   0.04392  0.45608  0.25000
E32   E   0.04392  0.45608  0.75000
E33   E   0.04392  0.54392  0.25000
E34   E   0.04392  0.54392  0.75000
E35   E   0.04392  0.75000  0.45608
E36   E   0.04392  0.75000  0.54392
E37   E   0.06211  0.06211  0.24844
E38   E   0.06211  0.06211  0.75156
E39   E   0.06211  0.24844  0.06211
E40   E   0.06211  0.24844  0.93789
E41   E   0.06211  0.75156  0.06211
E42   E   0.06211  0.75156  0.93789
E43   E   0.06211  0.93789  0.24844
E44   E   0.06211  0.93789  0.75156
E45   E   0.15605  0.00000  0.33030
E46   E   0.15605  0.00000  0.66970
E47   E   0.15605  0.33030  0.00000
E48   E   0.15605  0.66970  0.00000
E49   E   0.16970  0.34395  0.50000
E50   E   0.16970  0.50000  0.34395
E51   E   0.16970  0.50000  0.65605
E52   E   0.16970  0.65605  0.50000
E53   E   0.18633  0.00000  0.18633
E54   E   0.18633  0.00000  0.81367
E55   E   0.18633  0.18633  0.00000
E56   E   0.18633  0.81367  0.00000
E57   E   0.18789  0.00000  0.50000
E58   E   0.18789  0.50000  0.00000
E59   E   0.24844  0.06211  0.06211
E60   E   0.24844  0.06211  0.93789
E61   E   0.24844  0.93789  0.06211
E62   E   0.24844  0.93789  0.93789
E63   E   0.25000  0.04392  0.45608
E64   E   0.25000  0.04392  0.54392
E65   E   0.25000  0.04392  0.45608
E66   E   0.25000  0.04392  0.54392
E67   E   0.25000  0.45608  0.04392
E68   E   0.25000  0.45608  0.04392
E69   E   0.25000  0.45608  0.95608
E70   E   0.25000  0.54392  0.04392
E71   E   0.25000  0.54392  0.04392
E72   E   0.25000  0.54392  0.95608
E73   E   0.25000  0.95608  0.45608
E74   E   0.25000  0.95608  0.54392
E75   E   0.25156  0.43789  0.43789
E76   E   0.25156  0.43789  0.56211
E77   E   0.25156  0.56211  0.43789
E78   E   0.25156  0.56211  0.56211
E79   E   0.31211  0.00000  0.50000
E80   E   0.31211  0.50000  0.00000
E81   E   0.31367  0.31367  0.50000
E82   E   0.31367  0.50000  0.31367
E83   E   0.31367  0.50000  0.68633
E84   E   0.31367  0.68633  0.50000
E85   E   0.33030  0.00000  0.15605
E86   E   0.33030  0.00000  0.84395
E87   E   0.33030  0.15605  0.00000
E88   E   0.33030  0.84395  0.00000
E89   E   0.34395  0.16970  0.50000
E90   E   0.34395  0.50000  0.16970
E91   E   0.34395  0.50000  0.83030
E92   E   0.34395  0.83030  0.50000
E93   E   0.43789  0.25156  0.43789
E94   E   0.43789  0.25156  0.56211
E95   E   0.43789  0.43789  0.25156
E96   E   0.43789  0.43789  0.74844
E97   E   0.43789  0.56211  0.25156
E98   E   0.43789  0.56211  0.74844
E99   E   0.43789  0.74844  0.43789
E100  E   0.43789  0.74844  0.56211
E101  E   0.45608  0.04392  0.25000
E102  E   0.45608  0.04392  0.75000
E103  E   0.45608  0.04392  0.25000
E104  E   0.45608  0.04392  0.75000
E105  E   0.45608  0.25000  0.04392
E106  E   0.45608  0.25000  0.04392
E107  E   0.45608  0.25000  0.95608
E108  E   0.45608  0.75000  0.04392
E109  E   0.45608  0.75000  0.04392
E110  E   0.45608  0.75000  0.95608
E111  E   0.45608  0.95608  0.25000
E112  E   0.45608  0.95608  0.75000
E113  E   0.50000  0.00000  0.18789
E114  E   0.50000  0.00000  0.31211
E115  E   0.50000  0.00000  0.68789
E116  E   0.50000  0.00000  0.81211
E117  E   0.50000  0.16970  0.34395
E118  E   0.50000  0.16970  0.65605
E119  E   0.50000  0.18789  0.00000
E120  E   0.50000  0.31211  0.00000
E121  E   0.50000  0.31367  0.31367
E122  E   0.50000  0.31367  0.68633
E123  E   0.50000  0.34395  0.16970
E124  E   0.50000  0.34395  0.83030
E125  E   0.50000  0.65605  0.16970
E126  E   0.50000  0.65605  0.83030
E127  E   0.50000  0.68633  0.31367
E128  E   0.50000  0.68633  0.68633
E129  E   0.50000  0.68789  0.00000
E130  E   0.50000  0.81211  0.00000
E131  E   0.50000  0.83030  0.34395
E132  E   0.50000  0.83030  0.65605
E133  E   0.54392  0.04392  0.25000
E134  E   0.54392  0.04392  0.75000
E135  E   0.54392  0.04392  0.25000
E136  E   0.54392  0.04392  0.75000
E137  E   0.54392  0.25000  0.04392
E138  E   0.54392  0.25000  0.04392
E139  E   0.54392  0.25000  0.95608
E140  E   0.54392  0.75000  0.04392
E141  E   0.54392  0.75000  0.04392
E142  E   0.54392  0.75000  0.95608
E143  E   0.54392  0.95608  0.25000
E144  E   0.54392  0.95608  0.75000
E145  E   0.56211  0.25156  0.43789
E146  E   0.56211  0.25156  0.56211
E147  E   0.56211  0.43789  0.25156
E148  E   0.56211  0.43789  0.74844
E149  E   0.56211  0.56211  0.25156
E150  E   0.56211  0.56211  0.74844
E151  E   0.56211  0.74844  0.43789
E152  E   0.56211  0.74844  0.56211
E153  E   0.65605  0.16970  0.50000
E154  E   0.65605  0.50000  0.16970
E155  E   0.65605  0.50000  0.83030
E156  E   0.65605  0.83030  0.50000
E157  E   0.66970  0.00000  0.15605
E158  E   0.66970  0.00000  0.84395
E159  E   0.66970  0.15605  0.00000
E160  E   0.66970  0.84395  0.00000
E161  E   0.68633  0.31367  0.50000
E162  E   0.68633  0.50000  0.31367
E163  E   0.68633  0.50000  0.68633
E164  E   0.68633  0.68633  0.50000
E165  E   0.68789  0.00000  0.50000
E166  E   0.68789  0.50000  0.00000
E167  E   0.74844  0.43789  0.43789
E168  E   0.74844  0.43789  0.56211
E169  E   0.74844  0.56211  0.43789
E170  E   0.74844  0.56211  0.56211
E171  E   0.75000  0.04392  0.45608
E172  E   0.75000  0.04392  0.54392
E173  E   0.75000  0.04392  0.45608
E174  E   0.75000  0.04392  0.54392
E175  E   0.75000  0.45608  0.04392
E176  E   0.75000  0.45608  0.04392
E177  E   0.75000  0.45608  0.95608
E178  E   0.75000  0.54392  0.04392
E179  E   0.75000  0.54392  0.04392
E180  E   0.75000  0.54392  0.95608
E181  E   0.75000  0.95608  0.45608
E182  E   0.75000  0.95608  0.54392
E183  E   0.75156  0.06211  0.06211
E184  E   0.75156  0.06211  0.93789
E185  E   0.75156  0.93789  0.06211
E186  E   0.75156  0.93789  0.93789
E187  E   0.81211  0.00000  0.50000
E188  E   0.81211  0.50000  0.00000
E189  E   0.81367  0.00000  0.18633
E190  E   0.81367  0.00000  0.81367
E191  E   0.81367  0.18633  0.00000
E192  E   0.81367  0.81367  0.00000
E193  E   0.83030  0.34395  0.50000
E194  E   0.83030  0.50000  0.34395
E195  E   0.83030  0.50000  0.65605
E196  E   0.83030  0.65605  0.50000
E197  E   0.84395  0.00000  0.33030
E198  E   0.84395  0.00000  0.66970
E199  E   0.84395  0.33030  0.00000
E200  E   0.84395  0.66970  0.00000
E201  E   0.93789  0.06211  0.24844
E202  E   0.93789  0.06211  0.75156
E203  E   0.93789  0.24844  0.06211
E204  E   0.93789  0.24844  0.93789
E205  E   0.93789  0.75156  0.06211
E206  E   0.93789  0.75156  0.93789
E207  E   0.93789  0.93789  0.24844
E208  E   0.93789  0.93789  0.75156
E209  E   0.95608  0.25000  0.45608
E210  E   0.95608  0.25000  0.54392
E211  E   0.95608  0.45608  0.25000
E212  E   0.95608  0.45608  0.75000
E213  E   0.95608  0.54392  0.25000
E214  E   0.95608  0.54392  0.75000
E215  E   0.95608  0.75000  0.45608
E216  E   0.95608  0.75000  0.54392
loop_
