data_twt-e_P6222  hall_number: 474, V_con: 4, EC_con: 4
_audit_creation_date              2025-03-05
_audit_creation_method            'MOFbuilder_1.0'
_symmetry_space_group_name_H-M    'P1'
_symmetry_Int_Tables_number       1
_symmetry_cell_setting            triclinic
loop_
_symmetry_equiv_pos_as_xyz
  x,y,z
_cell_length_a                    28.8089
_cell_length_b                    28.8089
_cell_length_c                    22.451
_cell_angle_alpha                 90.0
_cell_angle_beta                  90.0
_cell_angle_gamma                 120.0
loop_
_atom_site_label
_atom_site_type_symbol
_atom_site_fract_x
_atom_site_fract_y
_atom_site_fract_z
V1    V   0.00000  0.50000  0.16666
V2    V   0.00000  0.50000  0.16667
V3    V   0.50000  0.00000  0.50000
V4    V   0.50000  0.00000  0.50000
V5    V   0.50000  0.50000  0.83333
V6    V   0.50000  0.50000  0.83334
EC1    EC   0.13292  0.26585  0.00000
EC2    EC   0.13292  0.86707  0.33333
EC3    EC   0.13293  0.26585  0.00000
EC4    EC   0.13293  0.86708  0.33333
EC5    EC   0.26585  0.13292  0.66667
EC6    EC   0.26585  0.13293  0.66667
EC7    EC   0.73415  0.86707  0.66667
EC8    EC   0.73415  0.86708  0.66667
EC9    EC   0.86707  0.13292  0.33333
EC10   EC   0.86707  0.73415  0.00000
EC11   EC   0.86708  0.13293  0.33333
EC12   EC   0.86708  0.73415  0.00000
E1    E   0.00000  0.19939  0.16666
E2    E   0.00000  0.19939  0.16667
E3    E   0.00000  0.80061  0.16666
E4    E   0.00000  0.80061  0.16667
E5    E   0.06646  0.38293  0.08333
E6    E   0.06646  0.68353  0.25000
E7    E   0.19939  0.00000  0.50000
E8    E   0.19939  0.00000  0.50000
E9    E   0.19939  0.19939  0.83333
E10   E   0.19939  0.19939  0.83334
E11   E   0.31647  0.38293  0.91667
E12   E   0.31647  0.93354  0.41666
E13   E   0.38293  0.06646  0.58334
E14   E   0.38293  0.31647  0.75000
E15   E   0.61707  0.68353  0.75000
E16   E   0.61707  0.93354  0.58334
E17   E   0.68353  0.06646  0.41666
E18   E   0.68353  0.61707  0.91667
E19   E   0.80061  0.00000  0.50000
E20   E   0.80061  0.00000  0.50000
E21   E   0.80061  0.80061  0.83333
E22   E   0.80061  0.80061  0.83334
E23   E   0.93354  0.31647  0.25000
E24   E   0.93354  0.61707  0.08333
loop_
