data_txt_Im-3m  hall_number: 529, V_con: 36, EC_con: 3
_audit_creation_date              2025-03-05
_audit_creation_method            'MOFbuilder_1.0'
_symmetry_space_group_name_H-M    'P1'
_symmetry_Int_Tables_number       1
_symmetry_cell_setting            triclinic
loop_
_symmetry_equiv_pos_as_xyz
  x,y,z
_cell_length_a                    18.873
_cell_length_b                    18.873
_cell_length_c                    18.873
_cell_angle_alpha                 90.0
_cell_angle_beta                  90.0
_cell_angle_gamma                 90.0
loop_
_atom_site_label
_atom_site_type_symbol
_atom_site_fract_x
_atom_site_fract_y
_atom_site_fract_z
V1    V   0.00000  0.00000  0.00000
V2    V   0.50000  0.50000  0.50000
EC1    EC   0.00000  0.37193  0.37193
EC2    EC   0.00000  0.37193  0.62807
EC3    EC   0.00000  0.62807  0.37193
EC4    EC   0.00000  0.62807  0.62807
EC5    EC   0.12807  0.12807  0.50000
EC6    EC   0.12807  0.50000  0.12807
EC7    EC   0.12807  0.50000  0.87193
EC8    EC   0.12807  0.87193  0.50000
EC9    EC   0.37193  0.00000  0.37193
EC10   EC   0.37193  0.00000  0.62807
EC11   EC   0.37193  0.37193  0.00000
EC12   EC   0.37193  0.62807  0.00000
EC13   EC   0.50000  0.12807  0.12807
EC14   EC   0.50000  0.12807  0.87193
EC15   EC   0.50000  0.87193  0.12807
EC16   EC   0.50000  0.87193  0.87193
EC17   EC   0.62807  0.00000  0.37193
EC18   EC   0.62807  0.00000  0.62807
EC19   EC   0.62807  0.37193  0.00000
EC20   EC   0.62807  0.62807  0.00000
EC21   EC   0.87193  0.12807  0.50000
EC22   EC   0.87193  0.50000  0.12807
EC23   EC   0.87193  0.50000  0.87193
EC24   EC   0.87193  0.87193  0.50000
E1    E   0.00000  0.18596  0.18596
E2    E   0.00000  0.18596  0.81404
E3    E   0.00000  0.81404  0.18596
E4    E   0.00000  0.81404  0.81404
E5    E   0.06404  0.06404  0.25000
E6    E   0.06404  0.06404  0.75000
E7    E   0.06404  0.25000  0.06404
E8    E   0.06404  0.25000  0.93596
E9    E   0.06404  0.75000  0.06404
E10   E   0.06404  0.75000  0.93596
E11   E   0.06404  0.93596  0.25000
E12   E   0.06404  0.93596  0.75000
E13   E   0.18596  0.00000  0.18596
E14   E   0.18596  0.00000  0.81404
E15   E   0.18596  0.18596  0.00000
E16   E   0.18596  0.81404  0.00000
E17   E   0.25000  0.06404  0.06404
E18   E   0.25000  0.06404  0.93596
E19   E   0.25000  0.43596  0.43596
E20   E   0.25000  0.43596  0.56404
E21   E   0.25000  0.56404  0.43596
E22   E   0.25000  0.56404  0.56404
E23   E   0.25000  0.93596  0.06404
E24   E   0.25000  0.93596  0.93596
E25   E   0.31404  0.31404  0.50000
E26   E   0.31404  0.50000  0.31404
E27   E   0.31404  0.50000  0.68596
E28   E   0.31404  0.68596  0.50000
E29   E   0.43596  0.25000  0.43596
E30   E   0.43596  0.25000  0.56404
E31   E   0.43596  0.43596  0.25000
E32   E   0.43596  0.43596  0.75000
E33   E   0.43596  0.56404  0.25000
E34   E   0.43596  0.56404  0.75000
E35   E   0.43596  0.75000  0.43596
E36   E   0.43596  0.75000  0.56404
E37   E   0.50000  0.31404  0.31404
E38   E   0.50000  0.31404  0.68596
E39   E   0.50000  0.68596  0.31404
E40   E   0.50000  0.68596  0.68596
E41   E   0.56404  0.25000  0.43596
E42   E   0.56404  0.25000  0.56404
E43   E   0.56404  0.43596  0.25000
E44   E   0.56404  0.43596  0.75000
E45   E   0.56404  0.56404  0.25000
E46   E   0.56404  0.56404  0.75000
E47   E   0.56404  0.75000  0.43596
E48   E   0.56404  0.75000  0.56404
E49   E   0.68596  0.31404  0.50000
E50   E   0.68596  0.50000  0.31404
E51   E   0.68596  0.50000  0.68596
E52   E   0.68596  0.68596  0.50000
E53   E   0.75000  0.06404  0.06404
E54   E   0.75000  0.06404  0.93596
E55   E   0.75000  0.43596  0.43596
E56   E   0.75000  0.43596  0.56404
E57   E   0.75000  0.56404  0.43596
E58   E   0.75000  0.56404  0.56404
E59   E   0.75000  0.93596  0.06404
E60   E   0.75000  0.93596  0.93596
E61   E   0.81404  0.00000  0.18596
E62   E   0.81404  0.00000  0.81404
E63   E   0.81404  0.18596  0.00000
E64   E   0.81404  0.81404  0.00000
E65   E   0.93596  0.06404  0.25000
E66   E   0.93596  0.06404  0.75000
E67   E   0.93596  0.25000  0.06404
E68   E   0.93596  0.25000  0.93596
E69   E   0.93596  0.75000  0.06404
E70   E   0.93596  0.75000  0.93596
E71   E   0.93596  0.93596  0.25000
E72   E   0.93596  0.93596  0.75000
loop_
