data_ubt-a_Fm-3m  hall_number: 523, V_con: 5, EC_con: 4
_audit_creation_date              2025-03-05
_audit_creation_method            'MOFbuilder_1.0'
_symmetry_space_group_name_H-M    'P1'
_symmetry_Int_Tables_number       1
_symmetry_cell_setting            triclinic
loop_
_symmetry_equiv_pos_as_xyz
  x,y,z
_cell_length_a                    96.5683
_cell_length_b                    96.5683
_cell_length_c                    96.5683
_cell_angle_alpha                 90.0
_cell_angle_beta                  90.0
_cell_angle_gamma                 90.0
loop_
_atom_site_label
_atom_site_type_symbol
_atom_site_fract_x
_atom_site_fract_y
_atom_site_fract_z
V1    V   0.00000  0.21339  0.28661
V2    V   0.00000  0.21339  0.71339
V3    V   0.00000  0.21339  0.28661
V4    V   0.00000  0.21339  0.71339
V5    V   0.00000  0.28661  0.21339
V6    V   0.00000  0.28661  0.78661
V7    V   0.00000  0.28661  0.21339
V8    V   0.00000  0.28661  0.78661
V9    V   0.00000  0.71339  0.21339
V10   V   0.00000  0.71339  0.21339
V11   V   0.00000  0.71339  0.78661
V12   V   0.00000  0.78661  0.28661
V13   V   0.00000  0.78661  0.28661
V14   V   0.00000  0.78661  0.71339
V15   V   0.21339  0.00000  0.28661
V16   V   0.21339  0.00000  0.71339
V17   V   0.21339  0.21339  0.50000
V18   V   0.21339  0.28661  0.00000
V19   V   0.21339  0.50000  0.21339
V20   V   0.21339  0.50000  0.78661
V21   V   0.21339  0.71339  0.00000
V22   V   0.21339  0.78661  0.50000
V23   V   0.21339  0.00000  0.28661
V24   V   0.21339  0.00000  0.71339
V25   V   0.21339  0.21339  0.50000
V26   V   0.21339  0.28661  0.00000
V27   V   0.21339  0.50000  0.21339
V28   V   0.21339  0.50000  0.78661
V29   V   0.21339  0.71339  0.00000
V30   V   0.21339  0.78661  0.50000
V31   V   0.28661  0.00000  0.21339
V32   V   0.28661  0.00000  0.78661
V33   V   0.28661  0.21339  0.00000
V34   V   0.28661  0.28661  0.50000
V35   V   0.28661  0.50000  0.28661
V36   V   0.28661  0.50000  0.71339
V37   V   0.28661  0.71339  0.50000
V38   V   0.28661  0.78661  0.00000
V39   V   0.28661  0.00000  0.21339
V40   V   0.28661  0.00000  0.78661
V41   V   0.28661  0.21339  0.00000
V42   V   0.28661  0.28661  0.50000
V43   V   0.28661  0.50000  0.28661
V44   V   0.28661  0.50000  0.71339
V45   V   0.28661  0.71339  0.50000
V46   V   0.28661  0.78661  0.00000
V47   V   0.50000  0.21339  0.21339
V48   V   0.50000  0.21339  0.78661
V49   V   0.50000  0.21339  0.21339
V50   V   0.50000  0.21339  0.78661
V51   V   0.50000  0.28661  0.28661
V52   V   0.50000  0.28661  0.71339
V53   V   0.50000  0.28661  0.28661
V54   V   0.50000  0.28661  0.71339
V55   V   0.50000  0.71339  0.28661
V56   V   0.50000  0.71339  0.28661
V57   V   0.50000  0.71339  0.71339
V58   V   0.50000  0.78661  0.21339
V59   V   0.50000  0.78661  0.21339
V60   V   0.50000  0.78661  0.78661
V61   V   0.71339  0.00000  0.21339
V62   V   0.71339  0.00000  0.21339
V63   V   0.71339  0.00000  0.78661
V64   V   0.71339  0.21339  0.00000
V65   V   0.71339  0.21339  0.00000
V66   V   0.71339  0.28661  0.50000
V67   V   0.71339  0.28661  0.50000
V68   V   0.71339  0.50000  0.28661
V69   V   0.71339  0.50000  0.28661
V70   V   0.71339  0.50000  0.71339
V71   V   0.71339  0.71339  0.50000
V72   V   0.71339  0.78661  0.00000
V73   V   0.78661  0.00000  0.28661
V74   V   0.78661  0.00000  0.28661
V75   V   0.78661  0.00000  0.71339
V76   V   0.78661  0.21339  0.50000
V77   V   0.78661  0.21339  0.50000
V78   V   0.78661  0.28661  0.00000
V79   V   0.78661  0.28661  0.00000
V80   V   0.78661  0.50000  0.21339
V81   V   0.78661  0.50000  0.21339
V82   V   0.78661  0.50000  0.78661
V83   V   0.78661  0.71339  0.00000
V84   V   0.78661  0.78661  0.50000
EC1    EC   0.05178  0.12500  0.30178
EC2    EC   0.05178  0.12500  0.69822
EC3    EC   0.05178  0.19822  0.37500
EC4    EC   0.05178  0.19822  0.62500
EC5    EC   0.05178  0.30178  0.12500
EC6    EC   0.05178  0.30178  0.87500
EC7    EC   0.05178  0.37500  0.19822
EC8    EC   0.05178  0.37500  0.80178
EC9    EC   0.05178  0.62500  0.19822
EC10   EC   0.05178  0.62500  0.80178
EC11   EC   0.05178  0.69822  0.12500
EC12   EC   0.05178  0.69822  0.87500
EC13   EC   0.05178  0.80178  0.37500
EC14   EC   0.05178  0.80178  0.62500
EC15   EC   0.05178  0.87500  0.30178
EC16   EC   0.05178  0.87500  0.69822
EC17   EC   0.12500  0.05178  0.30178
EC18   EC   0.12500  0.05178  0.69822
EC19   EC   0.12500  0.19822  0.44822
EC20   EC   0.12500  0.19822  0.55178
EC21   EC   0.12500  0.30178  0.05178
EC22   EC   0.12500  0.30178  0.94822
EC23   EC   0.12500  0.44822  0.19822
EC24   EC   0.12500  0.44822  0.80178
EC25   EC   0.12500  0.55178  0.19822
EC26   EC   0.12500  0.55178  0.80178
EC27   EC   0.12500  0.69822  0.05178
EC28   EC   0.12500  0.69822  0.94822
EC29   EC   0.12500  0.80178  0.44822
EC30   EC   0.12500  0.80178  0.55178
EC31   EC   0.12500  0.94822  0.30178
EC32   EC   0.12500  0.94822  0.69822
EC33   EC   0.19822  0.05178  0.37500
EC34   EC   0.19822  0.05178  0.62500
EC35   EC   0.19822  0.12500  0.44822
EC36   EC   0.19822  0.12500  0.55178
EC37   EC   0.19822  0.37500  0.05178
EC38   EC   0.19822  0.37500  0.94822
EC39   EC   0.19822  0.44822  0.12500
EC40   EC   0.19822  0.44822  0.87500
EC41   EC   0.19822  0.55178  0.12500
EC42   EC   0.19822  0.55178  0.87500
EC43   EC   0.19822  0.62500  0.05178
EC44   EC   0.19822  0.62500  0.94822
EC45   EC   0.19822  0.87500  0.44822
EC46   EC   0.19822  0.87500  0.55178
EC47   EC   0.19822  0.94822  0.37500
EC48   EC   0.19822  0.94822  0.62500
EC49   EC   0.30178  0.05178  0.12500
EC50   EC   0.30178  0.05178  0.87500
EC51   EC   0.30178  0.12500  0.05178
EC52   EC   0.30178  0.12500  0.94822
EC53   EC   0.30178  0.37500  0.44822
EC54   EC   0.30178  0.37500  0.55178
EC55   EC   0.30178  0.44822  0.37500
EC56   EC   0.30178  0.44822  0.62500
EC57   EC   0.30178  0.55178  0.37500
EC58   EC   0.30178  0.55178  0.62500
EC59   EC   0.30178  0.62500  0.44822
EC60   EC   0.30178  0.62500  0.55178
EC61   EC   0.30178  0.87500  0.05178
EC62   EC   0.30178  0.87500  0.94822
EC63   EC   0.30178  0.94822  0.12500
EC64   EC   0.30178  0.94822  0.87500
EC65   EC   0.37500  0.05178  0.19822
EC66   EC   0.37500  0.05178  0.80178
EC67   EC   0.37500  0.19822  0.05178
EC68   EC   0.37500  0.19822  0.94822
EC69   EC   0.37500  0.30178  0.44822
EC70   EC   0.37500  0.30178  0.55178
EC71   EC   0.37500  0.44822  0.30178
EC72   EC   0.37500  0.44822  0.69822
EC73   EC   0.37500  0.55178  0.30178
EC74   EC   0.37500  0.55178  0.69822
EC75   EC   0.37500  0.69822  0.44822
EC76   EC   0.37500  0.69822  0.55178
EC77   EC   0.37500  0.80178  0.05178
EC78   EC   0.37500  0.80178  0.94822
EC79   EC   0.37500  0.94822  0.19822
EC80   EC   0.37500  0.94822  0.80178
EC81   EC   0.44822  0.12500  0.19822
EC82   EC   0.44822  0.12500  0.80178
EC83   EC   0.44822  0.19822  0.12500
EC84   EC   0.44822  0.19822  0.87500
EC85   EC   0.44822  0.30178  0.37500
EC86   EC   0.44822  0.30178  0.62500
EC87   EC   0.44822  0.37500  0.30178
EC88   EC   0.44822  0.37500  0.69822
EC89   EC   0.44822  0.62500  0.30178
EC90   EC   0.44822  0.62500  0.69822
EC91   EC   0.44822  0.69822  0.37500
EC92   EC   0.44822  0.69822  0.62500
EC93   EC   0.44822  0.80178  0.12500
EC94   EC   0.44822  0.80178  0.87500
EC95   EC   0.44822  0.87500  0.19822
EC96   EC   0.44822  0.87500  0.80178
EC97   EC   0.55178  0.12500  0.19822
EC98   EC   0.55178  0.12500  0.80178
EC99   EC   0.55178  0.19822  0.12500
EC100  EC   0.55178  0.19822  0.87500
EC101  EC   0.55178  0.30178  0.37500
EC102  EC   0.55178  0.30178  0.62500
EC103  EC   0.55178  0.37500  0.30178
EC104  EC   0.55178  0.37500  0.69822
EC105  EC   0.55178  0.62500  0.30178
EC106  EC   0.55178  0.62500  0.69822
EC107  EC   0.55178  0.69822  0.37500
EC108  EC   0.55178  0.69822  0.62500
EC109  EC   0.55178  0.80178  0.12500
EC110  EC   0.55178  0.80178  0.87500
EC111  EC   0.55178  0.87500  0.19822
EC112  EC   0.55178  0.87500  0.80178
EC113  EC   0.62500  0.05178  0.19822
EC114  EC   0.62500  0.05178  0.80178
EC115  EC   0.62500  0.19822  0.05178
EC116  EC   0.62500  0.19822  0.94822
EC117  EC   0.62500  0.30178  0.44822
EC118  EC   0.62500  0.30178  0.55178
EC119  EC   0.62500  0.44822  0.30178
EC120  EC   0.62500  0.44822  0.69822
EC121  EC   0.62500  0.55178  0.30178
EC122  EC   0.62500  0.55178  0.69822
EC123  EC   0.62500  0.69822  0.44822
EC124  EC   0.62500  0.69822  0.55178
EC125  EC   0.62500  0.80178  0.05178
EC126  EC   0.62500  0.80178  0.94822
EC127  EC   0.62500  0.94822  0.19822
EC128  EC   0.62500  0.94822  0.80178
EC129  EC   0.69822  0.05178  0.12500
EC130  EC   0.69822  0.05178  0.87500
EC131  EC   0.69822  0.12500  0.05178
EC132  EC   0.69822  0.12500  0.94822
EC133  EC   0.69822  0.37500  0.44822
EC134  EC   0.69822  0.37500  0.55178
EC135  EC   0.69822  0.44822  0.37500
EC136  EC   0.69822  0.44822  0.62500
EC137  EC   0.69822  0.55178  0.37500
EC138  EC   0.69822  0.55178  0.62500
EC139  EC   0.69822  0.62500  0.44822
EC140  EC   0.69822  0.62500  0.55178
EC141  EC   0.69822  0.87500  0.05178
EC142  EC   0.69822  0.87500  0.94822
EC143  EC   0.69822  0.94822  0.12500
EC144  EC   0.69822  0.94822  0.87500
EC145  EC   0.80178  0.05178  0.37500
EC146  EC   0.80178  0.05178  0.62500
EC147  EC   0.80178  0.12500  0.44822
EC148  EC   0.80178  0.12500  0.55178
EC149  EC   0.80178  0.37500  0.05178
EC150  EC   0.80178  0.37500  0.94822
EC151  EC   0.80178  0.44822  0.12500
EC152  EC   0.80178  0.44822  0.87500
EC153  EC   0.80178  0.55178  0.12500
EC154  EC   0.80178  0.55178  0.87500
EC155  EC   0.80178  0.62500  0.05178
EC156  EC   0.80178  0.62500  0.94822
EC157  EC   0.80178  0.87500  0.44822
EC158  EC   0.80178  0.87500  0.55178
EC159  EC   0.80178  0.94822  0.37500
EC160  EC   0.80178  0.94822  0.62500
EC161  EC   0.87500  0.05178  0.30178
EC162  EC   0.87500  0.05178  0.69822
EC163  EC   0.87500  0.19822  0.44822
EC164  EC   0.87500  0.19822  0.55178
EC165  EC   0.87500  0.30178  0.05178
EC166  EC   0.87500  0.30178  0.94822
EC167  EC   0.87500  0.44822  0.19822
EC168  EC   0.87500  0.44822  0.80178
EC169  EC   0.87500  0.55178  0.19822
EC170  EC   0.87500  0.55178  0.80178
EC171  EC   0.87500  0.69822  0.05178
EC172  EC   0.87500  0.69822  0.94822
EC173  EC   0.87500  0.80178  0.44822
EC174  EC   0.87500  0.80178  0.55178
EC175  EC   0.87500  0.94822  0.30178
EC176  EC   0.87500  0.94822  0.69822
EC177  EC   0.94822  0.12500  0.30178
EC178  EC   0.94822  0.12500  0.69822
EC179  EC   0.94822  0.19822  0.37500
EC180  EC   0.94822  0.19822  0.62500
EC181  EC   0.94822  0.30178  0.12500
EC182  EC   0.94822  0.30178  0.87500
EC183  EC   0.94822  0.37500  0.19822
EC184  EC   0.94822  0.37500  0.80178
EC185  EC   0.94822  0.62500  0.19822
EC186  EC   0.94822  0.62500  0.80178
EC187  EC   0.94822  0.69822  0.12500
EC188  EC   0.94822  0.69822  0.87500
EC189  EC   0.94822  0.80178  0.37500
EC190  EC   0.94822  0.80178  0.62500
EC191  EC   0.94822  0.87500  0.30178
EC192  EC   0.94822  0.87500  0.69822
E1    E   0.00000  0.12500  0.30178
E2    E   0.00000  0.12500  0.69822
E3    E   0.00000  0.19822  0.37500
E4    E   0.00000  0.19822  0.62500
E5    E   0.00000  0.25000  0.25000
E6    E   0.00000  0.25000  0.75000
E7    E   0.00000  0.30178  0.12500
E8    E   0.00000  0.30178  0.87500
E9    E   0.00000  0.37500  0.19822
E10   E   0.00000  0.37500  0.80178
E11   E   0.00000  0.62500  0.19822
E12   E   0.00000  0.62500  0.80178
E13   E   0.00000  0.69822  0.12500
E14   E   0.00000  0.69822  0.87500
E15   E   0.00000  0.75000  0.25000
E16   E   0.00000  0.75000  0.75000
E17   E   0.00000  0.80178  0.37500
E18   E   0.00000  0.80178  0.62500
E19   E   0.00000  0.87500  0.30178
E20   E   0.00000  0.87500  0.69822
E21   E   0.02589  0.16919  0.29419
E22   E   0.02589  0.16919  0.70581
E23   E   0.02589  0.20581  0.33081
E24   E   0.02589  0.20581  0.66919
E25   E   0.02589  0.29419  0.16919
E26   E   0.02589  0.29419  0.83081
E27   E   0.02589  0.33081  0.20581
E28   E   0.02589  0.33081  0.79419
E29   E   0.02589  0.66919  0.20581
E30   E   0.02589  0.66919  0.79419
E31   E   0.02589  0.70581  0.16919
E32   E   0.02589  0.70581  0.83081
E33   E   0.02589  0.79419  0.33081
E34   E   0.02589  0.79419  0.66919
E35   E   0.02589  0.83081  0.29419
E36   E   0.02589  0.83081  0.70581
E37   E   0.05178  0.16161  0.33839
E38   E   0.05178  0.16161  0.66161
E39   E   0.05178  0.16161  0.33839
E40   E   0.05178  0.16161  0.66161
E41   E   0.05178  0.33839  0.16161
E42   E   0.05178  0.33839  0.83839
E43   E   0.05178  0.33839  0.16161
E44   E   0.05178  0.33839  0.83839
E45   E   0.05178  0.66161  0.16161
E46   E   0.05178  0.66161  0.16161
E47   E   0.05178  0.66161  0.83839
E48   E   0.05178  0.83839  0.33839
E49   E   0.05178  0.83839  0.33839
E50   E   0.05178  0.83839  0.66161
E51   E   0.08839  0.08839  0.30178
E52   E   0.08839  0.08839  0.69822
E53   E   0.08839  0.19822  0.41161
E54   E   0.08839  0.19822  0.58839
E55   E   0.08839  0.30178  0.08839
E56   E   0.08839  0.30178  0.91161
E57   E   0.08839  0.41161  0.19822
E58   E   0.08839  0.41161  0.80178
E59   E   0.08839  0.58839  0.19822
E60   E   0.08839  0.58839  0.80178
E61   E   0.08839  0.69822  0.08839
E62   E   0.08839  0.69822  0.91161
E63   E   0.08839  0.80178  0.41161
E64   E   0.08839  0.80178  0.58839
E65   E   0.08839  0.91161  0.30178
E66   E   0.08839  0.91161  0.69822
E67   E   0.12500  0.00000  0.30178
E68   E   0.12500  0.00000  0.69822
E69   E   0.12500  0.19822  0.50000
E70   E   0.12500  0.30178  0.00000
E71   E   0.12500  0.50000  0.19822
E72   E   0.12500  0.50000  0.80178
E73   E   0.12500  0.69822  0.00000
E74   E   0.12500  0.80178  0.50000
E75   E   0.16161  0.05178  0.33839
E76   E   0.16161  0.05178  0.66161
E77   E   0.16161  0.16161  0.44822
E78   E   0.16161  0.16161  0.55178
E79   E   0.16161  0.33839  0.05178
E80   E   0.16161  0.33839  0.94822
E81   E   0.16161  0.44822  0.16161
E82   E   0.16161  0.44822  0.83839
E83   E   0.16161  0.55178  0.16161
E84   E   0.16161  0.55178  0.83839
E85   E   0.16161  0.66161  0.05178
E86   E   0.16161  0.66161  0.94822
E87   E   0.16161  0.83839  0.44822
E88   E   0.16161  0.83839  0.55178
E89   E   0.16161  0.94822  0.33839
E90   E   0.16161  0.94822  0.66161
E91   E   0.16161  0.05178  0.33839
E92   E   0.16161  0.05178  0.66161
E93   E   0.16161  0.16161  0.44822
E94   E   0.16161  0.16161  0.55178
E95   E   0.16161  0.33839  0.05178
E96   E   0.16161  0.33839  0.94822
E97   E   0.16161  0.44822  0.16161
E98   E   0.16161  0.44822  0.83839
E99   E   0.16161  0.55178  0.16161
E100  E   0.16161  0.55178  0.83839
E101  E   0.16161  0.66161  0.05178
E102  E   0.16161  0.66161  0.94822
E103  E   0.16161  0.83839  0.44822
E104  E   0.16161  0.83839  0.55178
E105  E   0.16161  0.94822  0.33839
E106  E   0.16161  0.94822  0.66161
E107  E   0.16919  0.02589  0.29419
E108  E   0.16919  0.02589  0.70581
E109  E   0.16919  0.20581  0.47411
E110  E   0.16919  0.20581  0.52589
E111  E   0.16919  0.29419  0.02589
E112  E   0.16919  0.29419  0.97411
E113  E   0.16919  0.47411  0.20581
E114  E   0.16919  0.47411  0.79419
E115  E   0.16919  0.52589  0.20581
E116  E   0.16919  0.52589  0.79419
E117  E   0.16919  0.70581  0.02589
E118  E   0.16919  0.70581  0.97411
E119  E   0.16919  0.79419  0.47411
E120  E   0.16919  0.79419  0.52589
E121  E   0.16919  0.97411  0.29419
E122  E   0.16919  0.97411  0.70581
E123  E   0.19822  0.00000  0.37500
E124  E   0.19822  0.00000  0.62500
E125  E   0.19822  0.08839  0.41161
E126  E   0.19822  0.08839  0.58839
E127  E   0.19822  0.12500  0.50000
E128  E   0.19822  0.37500  0.00000
E129  E   0.19822  0.41161  0.08839
E130  E   0.19822  0.41161  0.91161
E131  E   0.19822  0.50000  0.12500
E132  E   0.19822  0.50000  0.87500
E133  E   0.19822  0.58839  0.08839
E134  E   0.19822  0.58839  0.91161
E135  E   0.19822  0.62500  0.00000
E136  E   0.19822  0.87500  0.50000
E137  E   0.19822  0.91161  0.41161
E138  E   0.19822  0.91161  0.58839
E139  E   0.20581  0.02589  0.33081
E140  E   0.20581  0.02589  0.66919
E141  E   0.20581  0.16919  0.47411
E142  E   0.20581  0.16919  0.52589
E143  E   0.20581  0.33081  0.02589
E144  E   0.20581  0.33081  0.97411
E145  E   0.20581  0.47411  0.16919
E146  E   0.20581  0.47411  0.83081
E147  E   0.20581  0.52589  0.16919
E148  E   0.20581  0.52589  0.83081
E149  E   0.20581  0.66919  0.02589
E150  E   0.20581  0.66919  0.97411
E151  E   0.20581  0.83081  0.47411
E152  E   0.20581  0.83081  0.52589
E153  E   0.20581  0.97411  0.33081
E154  E   0.20581  0.97411  0.66919
E155  E   0.25000  0.00000  0.25000
E156  E   0.25000  0.00000  0.75000
E157  E   0.25000  0.25000  0.00000
E158  E   0.25000  0.25000  0.50000
E159  E   0.25000  0.50000  0.25000
E160  E   0.25000  0.50000  0.75000
E161  E   0.25000  0.75000  0.00000
E162  E   0.25000  0.75000  0.50000
E163  E   0.29419  0.02589  0.16919
E164  E   0.29419  0.02589  0.83081
E165  E   0.29419  0.16919  0.02589
E166  E   0.29419  0.16919  0.97411
E167  E   0.29419  0.33081  0.47411
E168  E   0.29419  0.33081  0.52589
E169  E   0.29419  0.47411  0.33081
E170  E   0.29419  0.47411  0.66919
E171  E   0.29419  0.52589  0.33081
E172  E   0.29419  0.52589  0.66919
E173  E   0.29419  0.66919  0.47411
E174  E   0.29419  0.66919  0.52589
E175  E   0.29419  0.83081  0.02589
E176  E   0.29419  0.83081  0.97411
E177  E   0.29419  0.97411  0.16919
E178  E   0.29419  0.97411  0.83081
E179  E   0.30178  0.00000  0.12500
E180  E   0.30178  0.00000  0.87500
E181  E   0.30178  0.08839  0.08839
E182  E   0.30178  0.08839  0.91161
E183  E   0.30178  0.12500  0.00000
E184  E   0.30178  0.37500  0.50000
E185  E   0.30178  0.41161  0.41161
E186  E   0.30178  0.41161  0.58839
E187  E   0.30178  0.50000  0.37500
E188  E   0.30178  0.50000  0.62500
E189  E   0.30178  0.58839  0.41161
E190  E   0.30178  0.58839  0.58839
E191  E   0.30178  0.62500  0.50000
E192  E   0.30178  0.87500  0.00000
E193  E   0.30178  0.91161  0.08839
E194  E   0.30178  0.91161  0.91161
E195  E   0.33081  0.02589  0.20581
E196  E   0.33081  0.02589  0.79419
E197  E   0.33081  0.20581  0.02589
E198  E   0.33081  0.20581  0.97411
E199  E   0.33081  0.29419  0.47411
E200  E   0.33081  0.29419  0.52589
E201  E   0.33081  0.47411  0.29419
E202  E   0.33081  0.47411  0.70581
E203  E   0.33081  0.52589  0.29419
E204  E   0.33081  0.52589  0.70581
E205  E   0.33081  0.70581  0.47411
E206  E   0.33081  0.70581  0.52589
E207  E   0.33081  0.79419  0.02589
E208  E   0.33081  0.79419  0.97411
E209  E   0.33081  0.97411  0.20581
E210  E   0.33081  0.97411  0.79419
E211  E   0.33839  0.05178  0.16161
E212  E   0.33839  0.05178  0.83839
E213  E   0.33839  0.16161  0.05178
E214  E   0.33839  0.16161  0.94822
E215  E   0.33839  0.33839  0.44822
E216  E   0.33839  0.33839  0.55178
E217  E   0.33839  0.44822  0.33839
E218  E   0.33839  0.44822  0.66161
E219  E   0.33839  0.55178  0.33839
E220  E   0.33839  0.55178  0.66161
E221  E   0.33839  0.66161  0.44822
E222  E   0.33839  0.66161  0.55178
E223  E   0.33839  0.83839  0.05178
E224  E   0.33839  0.83839  0.94822
E225  E   0.33839  0.94822  0.16161
E226  E   0.33839  0.94822  0.83839
E227  E   0.33839  0.05178  0.16161
E228  E   0.33839  0.05178  0.83839
E229  E   0.33839  0.16161  0.05178
E230  E   0.33839  0.16161  0.94822
E231  E   0.33839  0.33839  0.44822
E232  E   0.33839  0.33839  0.55178
E233  E   0.33839  0.44822  0.33839
E234  E   0.33839  0.44822  0.66161
E235  E   0.33839  0.55178  0.33839
E236  E   0.33839  0.55178  0.66161
E237  E   0.33839  0.66161  0.44822
E238  E   0.33839  0.66161  0.55178
E239  E   0.33839  0.83839  0.05178
E240  E   0.33839  0.83839  0.94822
E241  E   0.33839  0.94822  0.16161
E242  E   0.33839  0.94822  0.83839
E243  E   0.37500  0.00000  0.19822
E244  E   0.37500  0.00000  0.80178
E245  E   0.37500  0.19822  0.00000
E246  E   0.37500  0.30178  0.50000
E247  E   0.37500  0.50000  0.30178
E248  E   0.37500  0.50000  0.69822
E249  E   0.37500  0.69822  0.50000
E250  E   0.37500  0.80178  0.00000
E251  E   0.41161  0.08839  0.19822
E252  E   0.41161  0.08839  0.80178
E253  E   0.41161  0.19822  0.08839
E254  E   0.41161  0.19822  0.91161
E255  E   0.41161  0.30178  0.41161
E256  E   0.41161  0.30178  0.58839
E257  E   0.41161  0.41161  0.30178
E258  E   0.41161  0.41161  0.69822
E259  E   0.41161  0.58839  0.30178
E260  E   0.41161  0.58839  0.69822
E261  E   0.41161  0.69822  0.41161
E262  E   0.41161  0.69822  0.58839
E263  E   0.41161  0.80178  0.08839
E264  E   0.41161  0.80178  0.91161
E265  E   0.41161  0.91161  0.19822
E266  E   0.41161  0.91161  0.80178
E267  E   0.44822  0.16161  0.16161
E268  E   0.44822  0.16161  0.83839
E269  E   0.44822  0.16161  0.16161
E270  E   0.44822  0.16161  0.83839
E271  E   0.44822  0.33839  0.33839
E272  E   0.44822  0.33839  0.66161
E273  E   0.44822  0.33839  0.33839
E274  E   0.44822  0.33839  0.66161
E275  E   0.44822  0.66161  0.33839
E276  E   0.44822  0.66161  0.33839
E277  E   0.44822  0.66161  0.66161
E278  E   0.44822  0.83839  0.16161
E279  E   0.44822  0.83839  0.16161
E280  E   0.44822  0.83839  0.83839
E281  E   0.47411  0.16919  0.20581
E282  E   0.47411  0.16919  0.79419
E283  E   0.47411  0.20581  0.16919
E284  E   0.47411  0.20581  0.83081
E285  E   0.47411  0.29419  0.33081
E286  E   0.47411  0.29419  0.66919
E287  E   0.47411  0.33081  0.29419
E288  E   0.47411  0.33081  0.70581
E289  E   0.47411  0.66919  0.29419
E290  E   0.47411  0.66919  0.70581
E291  E   0.47411  0.70581  0.33081
E292  E   0.47411  0.70581  0.66919
E293  E   0.47411  0.79419  0.16919
E294  E   0.47411  0.79419  0.83081
E295  E   0.47411  0.83081  0.20581
E296  E   0.47411  0.83081  0.79419
E297  E   0.50000  0.12500  0.19822
E298  E   0.50000  0.12500  0.80178
E299  E   0.50000  0.19822  0.12500
E300  E   0.50000  0.19822  0.87500
E301  E   0.50000  0.25000  0.25000
E302  E   0.50000  0.25000  0.75000
E303  E   0.50000  0.30178  0.37500
E304  E   0.50000  0.30178  0.62500
E305  E   0.50000  0.37500  0.30178
E306  E   0.50000  0.37500  0.69822
E307  E   0.50000  0.62500  0.30178
E308  E   0.50000  0.62500  0.69822
E309  E   0.50000  0.69822  0.37500
E310  E   0.50000  0.69822  0.62500
E311  E   0.50000  0.75000  0.25000
E312  E   0.50000  0.75000  0.75000
E313  E   0.50000  0.80178  0.12500
E314  E   0.50000  0.80178  0.87500
E315  E   0.50000  0.87500  0.19822
E316  E   0.50000  0.87500  0.80178
E317  E   0.52589  0.16919  0.20581
E318  E   0.52589  0.16919  0.79419
E319  E   0.52589  0.20581  0.16919
E320  E   0.52589  0.20581  0.83081
E321  E   0.52589  0.29419  0.33081
E322  E   0.52589  0.29419  0.66919
E323  E   0.52589  0.33081  0.29419
E324  E   0.52589  0.33081  0.70581
E325  E   0.52589  0.66919  0.29419
E326  E   0.52589  0.66919  0.70581
E327  E   0.52589  0.70581  0.33081
E328  E   0.52589  0.70581  0.66919
E329  E   0.52589  0.79419  0.16919
E330  E   0.52589  0.79419  0.83081
E331  E   0.52589  0.83081  0.20581
E332  E   0.52589  0.83081  0.79419
E333  E   0.55178  0.16161  0.16161
E334  E   0.55178  0.16161  0.83839
E335  E   0.55178  0.16161  0.16161
E336  E   0.55178  0.16161  0.83839
E337  E   0.55178  0.33839  0.33839
E338  E   0.55178  0.33839  0.66161
E339  E   0.55178  0.33839  0.33839
E340  E   0.55178  0.33839  0.66161
E341  E   0.55178  0.66161  0.33839
E342  E   0.55178  0.66161  0.33839
E343  E   0.55178  0.66161  0.66161
E344  E   0.55178  0.83839  0.16161
E345  E   0.55178  0.83839  0.16161
E346  E   0.55178  0.83839  0.83839
E347  E   0.58839  0.08839  0.19822
E348  E   0.58839  0.08839  0.80178
E349  E   0.58839  0.19822  0.08839
E350  E   0.58839  0.19822  0.91161
E351  E   0.58839  0.30178  0.41161
E352  E   0.58839  0.30178  0.58839
E353  E   0.58839  0.41161  0.30178
E354  E   0.58839  0.41161  0.69822
E355  E   0.58839  0.58839  0.30178
E356  E   0.58839  0.58839  0.69822
E357  E   0.58839  0.69822  0.41161
E358  E   0.58839  0.69822  0.58839
E359  E   0.58839  0.80178  0.08839
E360  E   0.58839  0.80178  0.91161
E361  E   0.58839  0.91161  0.19822
E362  E   0.58839  0.91161  0.80178
E363  E   0.62500  0.00000  0.19822
E364  E   0.62500  0.00000  0.80178
E365  E   0.62500  0.19822  0.00000
E366  E   0.62500  0.30178  0.50000
E367  E   0.62500  0.50000  0.30178
E368  E   0.62500  0.50000  0.69822
E369  E   0.62500  0.69822  0.50000
E370  E   0.62500  0.80178  0.00000
E371  E   0.66161  0.05178  0.16161
E372  E   0.66161  0.05178  0.16161
E373  E   0.66161  0.05178  0.83839
E374  E   0.66161  0.16161  0.05178
E375  E   0.66161  0.16161  0.94822
E376  E   0.66161  0.16161  0.05178
E377  E   0.66161  0.16161  0.94822
E378  E   0.66161  0.33839  0.44822
E379  E   0.66161  0.33839  0.55178
E380  E   0.66161  0.33839  0.44822
E381  E   0.66161  0.33839  0.55178
E382  E   0.66161  0.44822  0.33839
E383  E   0.66161  0.44822  0.33839
E384  E   0.66161  0.44822  0.66161
E385  E   0.66161  0.55178  0.33839
E386  E   0.66161  0.55178  0.33839
E387  E   0.66161  0.55178  0.66161
E388  E   0.66161  0.66161  0.44822
E389  E   0.66161  0.66161  0.55178
E390  E   0.66161  0.83839  0.05178
E391  E   0.66161  0.83839  0.94822
E392  E   0.66161  0.94822  0.16161
E393  E   0.66161  0.94822  0.16161
E394  E   0.66161  0.94822  0.83839
E395  E   0.66919  0.02589  0.20581
E396  E   0.66919  0.02589  0.79419
E397  E   0.66919  0.20581  0.02589
E398  E   0.66919  0.20581  0.97411
E399  E   0.66919  0.29419  0.47411
E400  E   0.66919  0.29419  0.52589
E401  E   0.66919  0.47411  0.29419
E402  E   0.66919  0.47411  0.70581
E403  E   0.66919  0.52589  0.29419
E404  E   0.66919  0.52589  0.70581
E405  E   0.66919  0.70581  0.47411
E406  E   0.66919  0.70581  0.52589
E407  E   0.66919  0.79419  0.02589
E408  E   0.66919  0.79419  0.97411
E409  E   0.66919  0.97411  0.20581
E410  E   0.66919  0.97411  0.79419
E411  E   0.69822  0.00000  0.12500
E412  E   0.69822  0.00000  0.87500
E413  E   0.69822  0.08839  0.08839
E414  E   0.69822  0.08839  0.91161
E415  E   0.69822  0.12500  0.00000
E416  E   0.69822  0.37500  0.50000
E417  E   0.69822  0.41161  0.41161
E418  E   0.69822  0.41161  0.58839
E419  E   0.69822  0.50000  0.37500
E420  E   0.69822  0.50000  0.62500
E421  E   0.69822  0.58839  0.41161
E422  E   0.69822  0.58839  0.58839
E423  E   0.69822  0.62500  0.50000
E424  E   0.69822  0.87500  0.00000
E425  E   0.69822  0.91161  0.08839
E426  E   0.69822  0.91161  0.91161
E427  E   0.70581  0.02589  0.16919
E428  E   0.70581  0.02589  0.83081
E429  E   0.70581  0.16919  0.02589
E430  E   0.70581  0.16919  0.97411
E431  E   0.70581  0.33081  0.47411
E432  E   0.70581  0.33081  0.52589
E433  E   0.70581  0.47411  0.33081
E434  E   0.70581  0.47411  0.66919
E435  E   0.70581  0.52589  0.33081
E436  E   0.70581  0.52589  0.66919
E437  E   0.70581  0.66919  0.47411
E438  E   0.70581  0.66919  0.52589
E439  E   0.70581  0.83081  0.02589
E440  E   0.70581  0.83081  0.97411
E441  E   0.70581  0.97411  0.16919
E442  E   0.70581  0.97411  0.83081
E443  E   0.75000  0.00000  0.25000
E444  E   0.75000  0.00000  0.75000
E445  E   0.75000  0.25000  0.00000
E446  E   0.75000  0.25000  0.50000
E447  E   0.75000  0.50000  0.25000
E448  E   0.75000  0.50000  0.75000
E449  E   0.75000  0.75000  0.00000
E450  E   0.75000  0.75000  0.50000
E451  E   0.79419  0.02589  0.33081
E452  E   0.79419  0.02589  0.66919
E453  E   0.79419  0.16919  0.47411
E454  E   0.79419  0.16919  0.52589
E455  E   0.79419  0.33081  0.02589
E456  E   0.79419  0.33081  0.97411
E457  E   0.79419  0.47411  0.16919
E458  E   0.79419  0.47411  0.83081
E459  E   0.79419  0.52589  0.16919
E460  E   0.79419  0.52589  0.83081
E461  E   0.79419  0.66919  0.02589
E462  E   0.79419  0.66919  0.97411
E463  E   0.79419  0.83081  0.47411
E464  E   0.79419  0.83081  0.52589
E465  E   0.79419  0.97411  0.33081
E466  E   0.79419  0.97411  0.66919
E467  E   0.80178  0.00000  0.37500
E468  E   0.80178  0.00000  0.62500
E469  E   0.80178  0.08839  0.41161
E470  E   0.80178  0.08839  0.58839
E471  E   0.80178  0.12500  0.50000
E472  E   0.80178  0.37500  0.00000
E473  E   0.80178  0.41161  0.08839
E474  E   0.80178  0.41161  0.91161
E475  E   0.80178  0.50000  0.12500
E476  E   0.80178  0.50000  0.87500
E477  E   0.80178  0.58839  0.08839
E478  E   0.80178  0.58839  0.91161
E479  E   0.80178  0.62500  0.00000
E480  E   0.80178  0.87500  0.50000
E481  E   0.80178  0.91161  0.41161
E482  E   0.80178  0.91161  0.58839
E483  E   0.83081  0.02589  0.29419
E484  E   0.83081  0.02589  0.70581
E485  E   0.83081  0.20581  0.47411
E486  E   0.83081  0.20581  0.52589
E487  E   0.83081  0.29419  0.02589
E488  E   0.83081  0.29419  0.97411
E489  E   0.83081  0.47411  0.20581
E490  E   0.83081  0.47411  0.79419
E491  E   0.83081  0.52589  0.20581
E492  E   0.83081  0.52589  0.79419
E493  E   0.83081  0.70581  0.02589
E494  E   0.83081  0.70581  0.97411
E495  E   0.83081  0.79419  0.47411
E496  E   0.83081  0.79419  0.52589
E497  E   0.83081  0.97411  0.29419
E498  E   0.83081  0.97411  0.70581
E499  E   0.83839  0.05178  0.33839
E500  E   0.83839  0.05178  0.33839
E501  E   0.83839  0.05178  0.66161
E502  E   0.83839  0.16161  0.44822
E503  E   0.83839  0.16161  0.55178
E504  E   0.83839  0.16161  0.44822
E505  E   0.83839  0.16161  0.55178
E506  E   0.83839  0.33839  0.05178
E507  E   0.83839  0.33839  0.94822
E508  E   0.83839  0.33839  0.05178
E509  E   0.83839  0.33839  0.94822
E510  E   0.83839  0.44822  0.16161
E511  E   0.83839  0.44822  0.16161
E512  E   0.83839  0.44822  0.83839
E513  E   0.83839  0.55178  0.16161
E514  E   0.83839  0.55178  0.16161
E515  E   0.83839  0.55178  0.83839
E516  E   0.83839  0.66161  0.05178
E517  E   0.83839  0.66161  0.94822
E518  E   0.83839  0.83839  0.44822
E519  E   0.83839  0.83839  0.55178
E520  E   0.83839  0.94822  0.33839
E521  E   0.83839  0.94822  0.33839
E522  E   0.83839  0.94822  0.66161
E523  E   0.87500  0.00000  0.30178
E524  E   0.87500  0.00000  0.69822
E525  E   0.87500  0.19822  0.50000
E526  E   0.87500  0.30178  0.00000
E527  E   0.87500  0.50000  0.19822
E528  E   0.87500  0.50000  0.80178
E529  E   0.87500  0.69822  0.00000
E530  E   0.87500  0.80178  0.50000
E531  E   0.91161  0.08839  0.30178
E532  E   0.91161  0.08839  0.69822
E533  E   0.91161  0.19822  0.41161
E534  E   0.91161  0.19822  0.58839
E535  E   0.91161  0.30178  0.08839
E536  E   0.91161  0.30178  0.91161
E537  E   0.91161  0.41161  0.19822
E538  E   0.91161  0.41161  0.80178
E539  E   0.91161  0.58839  0.19822
E540  E   0.91161  0.58839  0.80178
E541  E   0.91161  0.69822  0.08839
E542  E   0.91161  0.69822  0.91161
E543  E   0.91161  0.80178  0.41161
E544  E   0.91161  0.80178  0.58839
E545  E   0.91161  0.91161  0.30178
E546  E   0.91161  0.91161  0.69822
E547  E   0.94822  0.16161  0.33839
E548  E   0.94822  0.16161  0.66161
E549  E   0.94822  0.16161  0.33839
E550  E   0.94822  0.16161  0.66161
E551  E   0.94822  0.33839  0.16161
E552  E   0.94822  0.33839  0.83839
E553  E   0.94822  0.33839  0.16161
E554  E   0.94822  0.33839  0.83839
E555  E   0.94822  0.66161  0.16161
E556  E   0.94822  0.66161  0.16161
E557  E   0.94822  0.66161  0.83839
E558  E   0.94822  0.83839  0.33839
E559  E   0.94822  0.83839  0.33839
E560  E   0.94822  0.83839  0.66161
E561  E   0.97411  0.16919  0.29419
E562  E   0.97411  0.16919  0.70581
E563  E   0.97411  0.20581  0.33081
E564  E   0.97411  0.20581  0.66919
E565  E   0.97411  0.29419  0.16919
E566  E   0.97411  0.29419  0.83081
E567  E   0.97411  0.33081  0.20581
E568  E   0.97411  0.33081  0.79419
E569  E   0.97411  0.66919  0.20581
E570  E   0.97411  0.66919  0.79419
E571  E   0.97411  0.70581  0.16919
E572  E   0.97411  0.70581  0.83081
E573  E   0.97411  0.79419  0.33081
E574  E   0.97411  0.79419  0.66919
E575  E   0.97411  0.83081  0.29419
E576  E   0.97411  0.83081  0.70581
loop_
