data_ukb_P42/nbc:2  hall_number: 415, V_con: 4
_audit_creation_date              2025-03-05
_audit_creation_method            'MOFbuilder_1.0'
_symmetry_space_group_name_H-M    'P1'
_symmetry_Int_Tables_number       1
_symmetry_cell_setting            triclinic
loop_
_symmetry_equiv_pos_as_xyz
  x,y,z
_cell_length_a                    29.9877
_cell_length_b                    29.9877
_cell_length_c                    25.253
_cell_angle_alpha                 90.0
_cell_angle_beta                  90.0
_cell_angle_gamma                 90.0
loop_
_atom_site_label
_atom_site_type_symbol
_atom_site_fract_x
_atom_site_fract_y
_atom_site_fract_z
V1    V   0.04437  0.67463  0.82339
V2    V   0.04437  0.82537  0.17661
V3    V   0.17463  0.54437  0.32339
V4    V   0.17463  0.95563  0.67661
V5    V   0.32537  0.54437  0.67661
V6    V   0.32537  0.95563  0.32339
V7    V   0.45563  0.67463  0.17661
V8    V   0.45563  0.82537  0.82339
V9    V   0.54437  0.17463  0.17661
V10   V   0.54437  0.32537  0.82339
V11   V   0.67463  0.04437  0.67661
V12   V   0.67463  0.45563  0.32339
V13   V   0.82537  0.04437  0.32339
V14   V   0.82537  0.45563  0.67661
V15   V   0.95563  0.17463  0.82339
V16   V   0.95563  0.32537  0.17661
E1    E   0.04437  0.75000  0.00000
E2    E   0.06513  0.06513  0.75000
E3    E   0.06513  0.43487  0.25000
E4    E   0.06513  0.06513  0.75000
E5    E   0.06513  0.43487  0.25000
E6    E   0.10950  0.68487  0.25000
E7    E   0.10950  0.81513  0.75000
E8    E   0.18487  0.60950  0.75000
E9    E   0.18487  0.89050  0.25000
E10   E   0.25000  0.54437  0.50000
E11   E   0.25000  0.95563  0.50000
E12   E   0.31513  0.60950  0.25000
E13   E   0.31513  0.89050  0.75000
E14   E   0.39050  0.68487  0.75000
E15   E   0.39050  0.81513  0.25000
E16   E   0.43487  0.06513  0.25000
E17   E   0.43487  0.06513  0.25000
E18   E   0.43487  0.43487  0.75000
E19   E   0.45563  0.75000  0.00000
E20   E   0.54437  0.25000  0.00000
E21   E   0.56513  0.56513  0.25000
E22   E   0.56513  0.93487  0.75000
E23   E   0.60950  0.18487  0.75000
E24   E   0.60950  0.31513  0.25000
E25   E   0.68487  0.10950  0.25000
E26   E   0.68487  0.39050  0.75000
E27   E   0.75000  0.04437  0.50000
E28   E   0.75000  0.45563  0.50000
E29   E   0.81513  0.10950  0.75000
E30   E   0.81513  0.39050  0.25000
E31   E   0.89050  0.18487  0.25000
E32   E   0.89050  0.31513  0.75000
E33   E   0.93487  0.56513  0.75000
E34   E   0.93487  0.93487  0.25000
E35   E   0.95563  0.25000  0.00000
loop_
