data_ukn_R-3m:H  hall_number: 166, V_con: 4
_audit_creation_date              2025-03-05
_audit_creation_method            'MOFbuilder_1.0'
_symmetry_space_group_name_H-M    'P1'
_symmetry_Int_Tables_number       1
_symmetry_cell_setting            triclinic
loop_
_symmetry_equiv_pos_as_xyz
  x,y,z
_cell_length_a                    70.6434
_cell_length_b                    70.6434
_cell_length_c                    17.9755
_cell_angle_alpha                 90.0
_cell_angle_beta                  90.0
_cell_angle_gamma                 120.0
loop_
_atom_site_label
_atom_site_type_symbol
_atom_site_fract_x
_atom_site_fract_y
_atom_site_fract_z
V1    V   0.07797  0.29750  0.08333
V2    V   0.07797  0.79750  0.41667
V3    V   0.57797  0.20250  0.58333
V4    V   0.57797  0.70250  0.91667
E1    E   0.00000  0.25852  0.00000
E2    E   0.00000  0.75852  0.50000
E3    E   0.09589  0.33333  0.33333
E4    E   0.09589  0.33333  0.83333
E5    E   0.09589  0.83333  0.16667
E6    E   0.09589  0.83333  0.66667
E7    E   0.14875  0.29750  0.08333
E8    E   0.14875  0.79750  0.41667
E9    E   0.50000  0.24148  0.50000
E10   E   0.50000  0.74148  0.00000
E11   E   0.59589  0.16667  0.33333
E12   E   0.59589  0.16667  0.83333
E13   E   0.59589  0.66667  0.16667
E14   E   0.59589  0.66667  0.66667
E15   E   0.64875  0.20250  0.58333
E16   E   0.64875  0.70250  0.91667
loop_
