data_ukp_I4132  hall_number: 510, V_con: 4
_audit_creation_date              2025-03-05
_audit_creation_method            'MOFbuilder_1.0'
_symmetry_space_group_name_H-M    'P1'
_symmetry_Int_Tables_number       1
_symmetry_cell_setting            triclinic
loop_
_symmetry_equiv_pos_as_xyz
  x,y,z
_cell_length_a                    42.8603
_cell_length_b                    42.8603
_cell_length_c                    42.8603
_cell_angle_alpha                 90.0
_cell_angle_beta                  90.0
_cell_angle_gamma                 90.0
loop_
_atom_site_label
_atom_site_type_symbol
_atom_site_fract_x
_atom_site_fract_y
_atom_site_fract_z
V1    V   0.01642  0.43683  0.87349
V2    V   0.01642  0.56317  0.62651
V3    V   0.06317  0.12651  0.51642
V4    V   0.06317  0.87349  0.98358
V5    V   0.12349  0.18683  0.73358
V6    V   0.12349  0.81317  0.76642
V7    V   0.12651  0.48358  0.43683
V8    V   0.12651  0.51642  0.06317
V9    V   0.18683  0.26642  0.37651
V10   V   0.18683  0.73358  0.12349
V11   V   0.23358  0.37651  0.81317
V12   V   0.23358  0.62349  0.68683
V13   V   0.26642  0.37651  0.18683
V14   V   0.26642  0.62349  0.31317
V15   V   0.31317  0.26642  0.62349
V16   V   0.31317  0.73358  0.87651
V17   V   0.37349  0.48358  0.56317
V18   V   0.37349  0.51642  0.93683
V19   V   0.37651  0.18683  0.26642
V20   V   0.37651  0.81317  0.23358
V21   V   0.43683  0.12651  0.48358
V22   V   0.43683  0.87349  0.01642
V23   V   0.48358  0.43683  0.12651
V24   V   0.48358  0.56317  0.37349
V25   V   0.51642  0.06317  0.12651
V26   V   0.51642  0.93683  0.37349
V27   V   0.56317  0.37349  0.48358
V28   V   0.56317  0.62651  0.01642
V29   V   0.62349  0.31317  0.26642
V30   V   0.62349  0.68683  0.23358
V31   V   0.62651  0.01642  0.56317
V32   V   0.62651  0.98358  0.93683
V33   V   0.68683  0.23358  0.62349
V34   V   0.68683  0.76642  0.87651
V35   V   0.73358  0.12349  0.18683
V36   V   0.73358  0.87651  0.31317
V37   V   0.76642  0.12349  0.81317
V38   V   0.76642  0.87651  0.68683
V39   V   0.81317  0.23358  0.37651
V40   V   0.81317  0.76642  0.12349
V41   V   0.87349  0.01642  0.43683
V42   V   0.87349  0.98358  0.06317
V43   V   0.87651  0.31317  0.73358
V44   V   0.87651  0.68683  0.76642
V45   V   0.93683  0.37349  0.51642
V46   V   0.93683  0.62651  0.98358
V47   V   0.98358  0.06317  0.87349
V48   V   0.98358  0.93683  0.62651
E1    E   0.02338  0.03167  0.57147
E2    E   0.02338  0.96833  0.92853
E3    E   0.03167  0.42853  0.47662
E4    E   0.03167  0.57147  0.02338
E5    E   0.05353  0.12500  0.80353
E6    E   0.05353  0.87500  0.69647
E7    E   0.05353  0.12500  0.80353
E8    E   0.05353  0.87500  0.69647
E9    E   0.07147  0.47662  0.96833
E10   E   0.07147  0.52338  0.53167
E11   E   0.09333  0.15667  0.62500
E12   E   0.09333  0.84333  0.87500
E13   E   0.09333  0.15667  0.62500
E14   E   0.09333  0.84333  0.87500
E15   E   0.12500  0.19647  0.44647
E16   E   0.12500  0.19647  0.44647
E17   E   0.12500  0.40667  0.84333
E18   E   0.12500  0.59333  0.65667
E19   E   0.12500  0.80353  0.05353
E20   E   0.12500  0.80353  0.05353
E21   E   0.15667  0.37500  0.40667
E22   E   0.15667  0.62500  0.09333
E23   E   0.15667  0.37500  0.40667
E24   E   0.15667  0.62500  0.09333
E25   E   0.17853  0.28167  0.77338
E26   E   0.17853  0.71833  0.72662
E27   E   0.19647  0.44647  0.12500
E28   E   0.19647  0.55353  0.37500
E29   E   0.19647  0.44647  0.12500
E30   E   0.19647  0.55353  0.37500
E31   E   0.21833  0.22662  0.67853
E32   E   0.21833  0.77338  0.82147
E33   E   0.22662  0.32147  0.28167
E34   E   0.22662  0.67853  0.21833
E35   E   0.27338  0.32147  0.71833
E36   E   0.27338  0.67853  0.78167
E37   E   0.28167  0.22662  0.32147
E38   E   0.28167  0.77338  0.17853
E39   E   0.30353  0.44647  0.87500
E40   E   0.30353  0.55353  0.62500
E41   E   0.30353  0.44647  0.87500
E42   E   0.30353  0.55353  0.62500
E43   E   0.32147  0.28167  0.22662
E44   E   0.32147  0.71833  0.27338
E45   E   0.34333  0.37500  0.59333
E46   E   0.34333  0.62500  0.90667
E47   E   0.37500  0.19647  0.55353
E48   E   0.37500  0.19647  0.55353
E49   E   0.37500  0.40667  0.15667
E50   E   0.37500  0.40667  0.15667
E51   E   0.37500  0.59333  0.34333
E52   E   0.37500  0.80353  0.94647
E53   E   0.37500  0.80353  0.94647
E54   E   0.40667  0.15667  0.37500
E55   E   0.40667  0.15667  0.37500
E56   E   0.40667  0.84333  0.12500
E57   E   0.42853  0.47662  0.03167
E58   E   0.42853  0.52338  0.46833
E59   E   0.44647  0.12500  0.19647
E60   E   0.44647  0.87500  0.30353
E61   E   0.44647  0.12500  0.19647
E62   E   0.44647  0.87500  0.30353
E63   E   0.46833  0.42853  0.52338
E64   E   0.46833  0.57147  0.97662
E65   E   0.47662  0.03167  0.42853
E66   E   0.47662  0.96833  0.07147
E67   E   0.52338  0.46833  0.42853
E68   E   0.52338  0.53167  0.07147
E69   E   0.53167  0.07147  0.52338
E70   E   0.53167  0.92853  0.97662
E71   E   0.55353  0.37500  0.19647
E72   E   0.55353  0.62500  0.30353
E73   E   0.55353  0.37500  0.19647
E74   E   0.55353  0.62500  0.30353
E75   E   0.57147  0.02338  0.03167
E76   E   0.57147  0.97662  0.46833
E77   E   0.59333  0.34333  0.37500
E78   E   0.59333  0.65667  0.12500
E79   E   0.62500  0.09333  0.15667
E80   E   0.62500  0.09333  0.15667
E81   E   0.62500  0.30353  0.55353
E82   E   0.62500  0.30353  0.55353
E83   E   0.62500  0.69647  0.94647
E84   E   0.62500  0.69647  0.94647
E85   E   0.62500  0.90667  0.34333
E86   E   0.65667  0.12500  0.59333
E87   E   0.65667  0.87500  0.90667
E88   E   0.67853  0.21833  0.22662
E89   E   0.67853  0.78167  0.27338
E90   E   0.69647  0.05353  0.87500
E91   E   0.69647  0.94647  0.62500
E92   E   0.69647  0.05353  0.87500
E93   E   0.69647  0.94647  0.62500
E94   E   0.71833  0.27338  0.32147
E95   E   0.71833  0.72662  0.17853
E96   E   0.72662  0.17853  0.71833
E97   E   0.72662  0.82147  0.78167
E98   E   0.77338  0.17853  0.28167
E99   E   0.77338  0.82147  0.21833
E100  E   0.78167  0.27338  0.67853
E101  E   0.78167  0.72662  0.82147
E102  E   0.80353  0.05353  0.12500
E103  E   0.80353  0.94647  0.37500
E104  E   0.80353  0.05353  0.12500
E105  E   0.80353  0.94647  0.37500
E106  E   0.82147  0.21833  0.77338
E107  E   0.82147  0.78167  0.72662
E108  E   0.84333  0.12500  0.40667
E109  E   0.84333  0.87500  0.09333
E110  E   0.84333  0.87500  0.09333
E111  E   0.87500  0.09333  0.84333
E112  E   0.87500  0.09333  0.84333
E113  E   0.87500  0.30353  0.44647
E114  E   0.87500  0.30353  0.44647
E115  E   0.87500  0.69647  0.05353
E116  E   0.87500  0.69647  0.05353
E117  E   0.87500  0.90667  0.65667
E118  E   0.90667  0.34333  0.62500
E119  E   0.90667  0.65667  0.87500
E120  E   0.92853  0.02338  0.96833
E121  E   0.92853  0.97662  0.53167
E122  E   0.94647  0.37500  0.80353
E123  E   0.94647  0.62500  0.69647
E124  E   0.94647  0.37500  0.80353
E125  E   0.94647  0.62500  0.69647
E126  E   0.96833  0.07147  0.47662
E127  E   0.96833  0.92853  0.02338
E128  E   0.97662  0.46833  0.57147
E129  E   0.97662  0.53167  0.92853
loop_
