data_ula_Ia-3d  hall_number: 530, V_con: 4
_audit_creation_date              2025-03-05
_audit_creation_method            'MOFbuilder_1.0'
_symmetry_space_group_name_H-M    'P1'
_symmetry_Int_Tables_number       1
_symmetry_cell_setting            triclinic
loop_
_symmetry_equiv_pos_as_xyz
  x,y,z
_cell_length_a                    47.3067
_cell_length_b                    47.3067
_cell_length_c                    47.3067
_cell_angle_alpha                 90.0
_cell_angle_beta                  90.0
_cell_angle_gamma                 90.0
loop_
_atom_site_label
_atom_site_type_symbol
_atom_site_fract_x
_atom_site_fract_y
_atom_site_fract_z
V1    V   0.02482  0.04700  0.34467
V2    V   0.02482  0.45300  0.84467
V3    V   0.02482  0.54700  0.65533
V4    V   0.02482  0.95300  0.15533
V5    V   0.04700  0.15533  0.52482
V6    V   0.04700  0.34467  0.02482
V7    V   0.04700  0.65533  0.47518
V8    V   0.04700  0.84467  0.97518
V9    V   0.09467  0.20300  0.72518
V10   V   0.09467  0.29700  0.22518
V11   V   0.09467  0.70300  0.27482
V12   V   0.09467  0.79700  0.77482
V13   V   0.15533  0.02482  0.95300
V14   V   0.15533  0.47518  0.45300
V15   V   0.15533  0.52482  0.04700
V16   V   0.15533  0.97518  0.54700
V17   V   0.20300  0.22518  0.90533
V18   V   0.20300  0.27482  0.40533
V19   V   0.20300  0.72518  0.09467
V20   V   0.20300  0.77482  0.59467
V21   V   0.22518  0.09467  0.29700
V22   V   0.22518  0.40533  0.79700
V23   V   0.22518  0.59467  0.70300
V24   V   0.22518  0.90533  0.20300
V25   V   0.27482  0.09467  0.70300
V26   V   0.27482  0.40533  0.20300
V27   V   0.27482  0.59467  0.29700
V28   V   0.27482  0.90533  0.79700
V29   V   0.29700  0.22518  0.09467
V30   V   0.29700  0.27482  0.59467
V31   V   0.29700  0.72518  0.90533
V32   V   0.29700  0.77482  0.40533
V33   V   0.34467  0.02482  0.04700
V34   V   0.34467  0.47518  0.54700
V35   V   0.34467  0.52482  0.95300
V36   V   0.34467  0.97518  0.45300
V37   V   0.40533  0.20300  0.27482
V38   V   0.40533  0.29700  0.77482
V39   V   0.40533  0.70300  0.72518
V40   V   0.40533  0.79700  0.22518
V41   V   0.45300  0.15533  0.47518
V42   V   0.45300  0.34467  0.97518
V43   V   0.45300  0.65533  0.52482
V44   V   0.45300  0.84467  0.02482
V45   V   0.47518  0.04700  0.65533
V46   V   0.47518  0.45300  0.15533
V47   V   0.47518  0.54700  0.34467
V48   V   0.47518  0.95300  0.84467
V49   V   0.52482  0.04700  0.15533
V50   V   0.52482  0.45300  0.65533
V51   V   0.52482  0.54700  0.84467
V52   V   0.52482  0.95300  0.34467
V53   V   0.54700  0.15533  0.97518
V54   V   0.54700  0.34467  0.47518
V55   V   0.54700  0.65533  0.02482
V56   V   0.54700  0.84467  0.52482
V57   V   0.59467  0.20300  0.77482
V58   V   0.59467  0.29700  0.27482
V59   V   0.59467  0.70300  0.22518
V60   V   0.59467  0.79700  0.72518
V61   V   0.65533  0.02482  0.54700
V62   V   0.65533  0.47518  0.04700
V63   V   0.65533  0.52482  0.45300
V64   V   0.65533  0.97518  0.95300
V65   V   0.70300  0.22518  0.59467
V66   V   0.70300  0.27482  0.09467
V67   V   0.70300  0.72518  0.40533
V68   V   0.70300  0.77482  0.90533
V69   V   0.72518  0.09467  0.20300
V70   V   0.72518  0.40533  0.70300
V71   V   0.72518  0.59467  0.79700
V72   V   0.72518  0.90533  0.29700
V73   V   0.77482  0.09467  0.79700
V74   V   0.77482  0.40533  0.29700
V75   V   0.77482  0.59467  0.20300
V76   V   0.77482  0.90533  0.70300
V77   V   0.79700  0.22518  0.40533
V78   V   0.79700  0.27482  0.90533
V79   V   0.79700  0.72518  0.59467
V80   V   0.79700  0.77482  0.09467
V81   V   0.84467  0.02482  0.45300
V82   V   0.84467  0.47518  0.95300
V83   V   0.84467  0.52482  0.54700
V84   V   0.84467  0.97518  0.04700
V85   V   0.90533  0.20300  0.22518
V86   V   0.90533  0.29700  0.72518
V87   V   0.90533  0.70300  0.77482
V88   V   0.90533  0.79700  0.27482
V89   V   0.95300  0.15533  0.02482
V90   V   0.95300  0.34467  0.52482
V91   V   0.95300  0.65533  0.97518
V92   V   0.95300  0.84467  0.47518
V93   V   0.97518  0.04700  0.84467
V94   V   0.97518  0.45300  0.34467
V95   V   0.97518  0.54700  0.15533
V96   V   0.97518  0.95300  0.65533
E1    E   0.00000  0.25000  0.02482
E2    E   0.00000  0.25000  0.22518
E3    E   0.00000  0.25000  0.52482
E4    E   0.00000  0.25000  0.72518
E5    E   0.00000  0.75000  0.27482
E6    E   0.00000  0.75000  0.47518
E7    E   0.00000  0.75000  0.77482
E8    E   0.00000  0.75000  0.97518
E9    E   0.02482  0.00000  0.25000
E10   E   0.02482  0.50000  0.75000
E11   E   0.03591  0.10117  0.43474
E12   E   0.03591  0.39883  0.93474
E13   E   0.03591  0.60117  0.56526
E14   E   0.03591  0.89883  0.06526
E15   E   0.06526  0.03591  0.89883
E16   E   0.06526  0.46409  0.39883
E17   E   0.06526  0.53591  0.10117
E18   E   0.06526  0.96409  0.60117
E19   E   0.07083  0.17917  0.62500
E20   E   0.07083  0.32083  0.12500
E21   E   0.07083  0.67917  0.37500
E22   E   0.07083  0.82083  0.87500
E23   E   0.07083  0.17917  0.62500
E24   E   0.07083  0.32083  0.12500
E25   E   0.07083  0.67917  0.37500
E26   E   0.07083  0.82083  0.87500
E27   E   0.10117  0.06526  0.53591
E28   E   0.10117  0.43474  0.03591
E29   E   0.10117  0.56526  0.46409
E30   E   0.10117  0.93474  0.96409
E31   E   0.12500  0.07083  0.32083
E32   E   0.12500  0.07083  0.32083
E33   E   0.12500  0.42917  0.82083
E34   E   0.12500  0.57083  0.67917
E35   E   0.12500  0.92917  0.17917
E36   E   0.14883  0.21409  0.81526
E37   E   0.14883  0.28591  0.31526
E38   E   0.14883  0.71409  0.18474
E39   E   0.14883  0.78591  0.68474
E40   E   0.17917  0.12500  0.92917
E41   E   0.17917  0.37500  0.42917
E42   E   0.17917  0.62500  0.07083
E43   E   0.17917  0.62500  0.07083
E44   E   0.17917  0.87500  0.57083
E45   E   0.18474  0.14883  0.71409
E46   E   0.18474  0.35117  0.21409
E47   E   0.18474  0.64883  0.28591
E48   E   0.18474  0.85117  0.78591
E49   E   0.21409  0.18474  0.35117
E50   E   0.21409  0.31526  0.85117
E51   E   0.21409  0.68474  0.64883
E52   E   0.21409  0.81526  0.14883
E53   E   0.22518  0.00000  0.25000
E54   E   0.22518  0.50000  0.75000
E55   E   0.25000  0.02482  0.00000
E56   E   0.25000  0.22518  0.00000
E57   E   0.25000  0.27482  0.50000
E58   E   0.25000  0.47518  0.50000
E59   E   0.25000  0.52482  0.00000
E60   E   0.25000  0.72518  0.00000
E61   E   0.25000  0.77482  0.50000
E62   E   0.25000  0.97518  0.50000
E63   E   0.27482  0.00000  0.75000
E64   E   0.27482  0.50000  0.25000
E65   E   0.28591  0.18474  0.64883
E66   E   0.28591  0.31526  0.14883
E67   E   0.28591  0.68474  0.35117
E68   E   0.28591  0.81526  0.85117
E69   E   0.31526  0.14883  0.28591
E70   E   0.31526  0.35117  0.78591
E71   E   0.31526  0.64883  0.71409
E72   E   0.31526  0.85117  0.21409
E73   E   0.32083  0.12500  0.07083
E74   E   0.32083  0.12500  0.07083
E75   E   0.32083  0.37500  0.57083
E76   E   0.32083  0.62500  0.92917
E77   E   0.32083  0.87500  0.42917
E78   E   0.35117  0.21409  0.18474
E79   E   0.35117  0.28591  0.68474
E80   E   0.35117  0.71409  0.81526
E81   E   0.35117  0.78591  0.31526
E82   E   0.37500  0.07083  0.67917
E83   E   0.37500  0.07083  0.67917
E84   E   0.37500  0.42917  0.17917
E85   E   0.37500  0.57083  0.32083
E86   E   0.37500  0.92917  0.82083
E87   E   0.39883  0.06526  0.46409
E88   E   0.39883  0.43474  0.96409
E89   E   0.39883  0.56526  0.53591
E90   E   0.39883  0.93474  0.03591
E91   E   0.42917  0.17917  0.37500
E92   E   0.42917  0.32083  0.87500
E93   E   0.42917  0.67917  0.62500
E94   E   0.42917  0.82083  0.12500
E95   E   0.43474  0.03591  0.10117
E96   E   0.43474  0.46409  0.60117
E97   E   0.43474  0.53591  0.89883
E98   E   0.43474  0.96409  0.39883
E99   E   0.46409  0.10117  0.56526
E100  E   0.46409  0.39883  0.06526
E101  E   0.46409  0.60117  0.43474
E102  E   0.46409  0.89883  0.93474
E103  E   0.47518  0.00000  0.75000
E104  E   0.47518  0.50000  0.25000
E105  E   0.50000  0.25000  0.27482
E106  E   0.50000  0.25000  0.47518
E107  E   0.50000  0.25000  0.77482
E108  E   0.50000  0.25000  0.97518
E109  E   0.50000  0.75000  0.02482
E110  E   0.50000  0.75000  0.22518
E111  E   0.50000  0.75000  0.52482
E112  E   0.50000  0.75000  0.72518
E113  E   0.52482  0.00000  0.25000
E114  E   0.52482  0.50000  0.75000
E115  E   0.53591  0.10117  0.06526
E116  E   0.53591  0.39883  0.56526
E117  E   0.53591  0.60117  0.93474
E118  E   0.53591  0.89883  0.43474
E119  E   0.56526  0.03591  0.60117
E120  E   0.56526  0.46409  0.10117
E121  E   0.56526  0.53591  0.39883
E122  E   0.56526  0.96409  0.89883
E123  E   0.57083  0.17917  0.87500
E124  E   0.57083  0.32083  0.37500
E125  E   0.57083  0.67917  0.12500
E126  E   0.57083  0.82083  0.62500
E127  E   0.60117  0.06526  0.96409
E128  E   0.60117  0.43474  0.46409
E129  E   0.60117  0.56526  0.03591
E130  E   0.60117  0.93474  0.53591
E131  E   0.62500  0.07083  0.17917
E132  E   0.62500  0.07083  0.17917
E133  E   0.62500  0.42917  0.67917
E134  E   0.62500  0.57083  0.82083
E135  E   0.62500  0.92917  0.32083
E136  E   0.64883  0.21409  0.68474
E137  E   0.64883  0.28591  0.18474
E138  E   0.64883  0.71409  0.31526
E139  E   0.64883  0.78591  0.81526
E140  E   0.67917  0.12500  0.57083
E141  E   0.67917  0.37500  0.07083
E142  E   0.67917  0.37500  0.07083
E143  E   0.67917  0.62500  0.42917
E144  E   0.67917  0.87500  0.92917
E145  E   0.68474  0.14883  0.78591
E146  E   0.68474  0.35117  0.28591
E147  E   0.68474  0.64883  0.21409
E148  E   0.68474  0.85117  0.71409
E149  E   0.71409  0.18474  0.14883
E150  E   0.71409  0.31526  0.64883
E151  E   0.71409  0.68474  0.85117
E152  E   0.71409  0.81526  0.35117
E153  E   0.72518  0.00000  0.25000
E154  E   0.72518  0.50000  0.75000
E155  E   0.75000  0.02482  0.50000
E156  E   0.75000  0.22518  0.50000
E157  E   0.75000  0.27482  0.00000
E158  E   0.75000  0.47518  0.00000
E159  E   0.75000  0.52482  0.50000
E160  E   0.75000  0.72518  0.50000
E161  E   0.75000  0.77482  0.00000
E162  E   0.75000  0.97518  0.00000
E163  E   0.77482  0.00000  0.75000
E164  E   0.77482  0.50000  0.25000
E165  E   0.78591  0.18474  0.85117
E166  E   0.78591  0.31526  0.35117
E167  E   0.78591  0.68474  0.14883
E168  E   0.78591  0.81526  0.64883
E169  E   0.81526  0.14883  0.21409
E170  E   0.81526  0.35117  0.71409
E171  E   0.81526  0.64883  0.78591
E172  E   0.81526  0.85117  0.28591
E173  E   0.82083  0.12500  0.42917
E174  E   0.82083  0.37500  0.92917
E175  E   0.82083  0.62500  0.57083
E176  E   0.82083  0.87500  0.07083
E177  E   0.82083  0.87500  0.07083
E178  E   0.85117  0.21409  0.31526
E179  E   0.85117  0.28591  0.81526
E180  E   0.85117  0.71409  0.68474
E181  E   0.85117  0.78591  0.18474
E182  E   0.87500  0.07083  0.82083
E183  E   0.87500  0.07083  0.82083
E184  E   0.87500  0.42917  0.32083
E185  E   0.87500  0.57083  0.17917
E186  E   0.87500  0.92917  0.67917
E187  E   0.89883  0.06526  0.03591
E188  E   0.89883  0.43474  0.53591
E189  E   0.89883  0.56526  0.96409
E190  E   0.89883  0.93474  0.46409
E191  E   0.92917  0.17917  0.12500
E192  E   0.92917  0.32083  0.62500
E193  E   0.92917  0.67917  0.87500
E194  E   0.92917  0.82083  0.37500
E195  E   0.93474  0.03591  0.39883
E196  E   0.93474  0.46409  0.89883
E197  E   0.93474  0.53591  0.60117
E198  E   0.93474  0.96409  0.10117
E199  E   0.96409  0.10117  0.93474
E200  E   0.96409  0.39883  0.43474
E201  E   0.96409  0.60117  0.06526
E202  E   0.96409  0.89883  0.56526
E203  E   0.97518  0.00000  0.75000
E204  E   0.97518  0.50000  0.25000
loop_
