data_ulg_F4132  hall_number: 506, V_con: 4
_audit_creation_date              2025-03-05
_audit_creation_method            'MOFbuilder_1.0'
_symmetry_space_group_name_H-M    'P1'
_symmetry_Int_Tables_number       1
_symmetry_cell_setting            triclinic
loop_
_symmetry_equiv_pos_as_xyz
  x,y,z
_cell_length_a                    67.501
_cell_length_b                    67.501
_cell_length_c                    67.501
_cell_angle_alpha                 90.0
_cell_angle_beta                  90.0
_cell_angle_gamma                 90.0
loop_
_atom_site_label
_atom_site_type_symbol
_atom_site_fract_x
_atom_site_fract_y
_atom_site_fract_z
V1    V   0.04011  0.15417  0.56228
V2    V   0.04011  0.34583  0.93772
V3    V   0.04011  0.65417  0.06228
V4    V   0.04011  0.84583  0.43772
V5    V   0.06228  0.04011  0.65417
V6    V   0.06228  0.45989  0.84583
V7    V   0.06228  0.54011  0.15417
V8    V   0.06228  0.95989  0.34583
V9    V   0.09583  0.20989  0.68772
V10   V   0.09583  0.29011  0.81228
V11   V   0.09583  0.70989  0.18772
V12   V   0.09583  0.79011  0.31228
V13   V   0.15417  0.06228  0.54011
V14   V   0.15417  0.43772  0.95989
V15   V   0.15417  0.56228  0.04011
V16   V   0.15417  0.93772  0.45989
V17   V   0.18772  0.09583  0.70989
V18   V   0.18772  0.40417  0.79011
V19   V   0.18772  0.59583  0.20989
V20   V   0.18772  0.90417  0.29011
V21   V   0.20989  0.18772  0.59583
V22   V   0.20989  0.31228  0.90417
V23   V   0.20989  0.68772  0.09583
V24   V   0.20989  0.81228  0.40417
V25   V   0.29011  0.18772  0.90417
V26   V   0.29011  0.31228  0.59583
V27   V   0.29011  0.68772  0.40417
V28   V   0.29011  0.81228  0.09583
V29   V   0.31228  0.09583  0.79011
V30   V   0.31228  0.40417  0.70989
V31   V   0.31228  0.59583  0.29011
V32   V   0.31228  0.90417  0.20989
V33   V   0.34583  0.06228  0.95989
V34   V   0.34583  0.43772  0.54011
V35   V   0.34583  0.56228  0.45989
V36   V   0.34583  0.93772  0.04011
V37   V   0.40417  0.20989  0.81228
V38   V   0.40417  0.29011  0.68772
V39   V   0.40417  0.70989  0.31228
V40   V   0.40417  0.79011  0.18772
V41   V   0.43772  0.04011  0.84583
V42   V   0.43772  0.45989  0.65417
V43   V   0.43772  0.54011  0.34583
V44   V   0.43772  0.95989  0.15417
V45   V   0.45989  0.15417  0.93772
V46   V   0.45989  0.34583  0.56228
V47   V   0.45989  0.65417  0.43772
V48   V   0.45989  0.84583  0.06228
V49   V   0.54011  0.15417  0.06228
V50   V   0.54011  0.34583  0.43772
V51   V   0.54011  0.65417  0.56228
V52   V   0.54011  0.84583  0.93772
V53   V   0.56228  0.04011  0.15417
V54   V   0.56228  0.45989  0.34583
V55   V   0.56228  0.54011  0.65417
V56   V   0.56228  0.95989  0.84583
V57   V   0.59583  0.20989  0.18772
V58   V   0.59583  0.29011  0.31228
V59   V   0.59583  0.70989  0.68772
V60   V   0.59583  0.79011  0.81228
V61   V   0.65417  0.06228  0.04011
V62   V   0.65417  0.43772  0.45989
V63   V   0.65417  0.56228  0.54011
V64   V   0.65417  0.93772  0.95989
V65   V   0.68772  0.09583  0.20989
V66   V   0.68772  0.40417  0.29011
V67   V   0.68772  0.59583  0.70989
V68   V   0.68772  0.90417  0.79011
V69   V   0.70989  0.18772  0.09583
V70   V   0.70989  0.31228  0.40417
V71   V   0.70989  0.68772  0.59583
V72   V   0.70989  0.81228  0.90417
V73   V   0.79011  0.18772  0.40417
V74   V   0.79011  0.31228  0.09583
V75   V   0.79011  0.68772  0.90417
V76   V   0.79011  0.81228  0.59583
V77   V   0.81228  0.09583  0.29011
V78   V   0.81228  0.40417  0.20989
V79   V   0.81228  0.59583  0.79011
V80   V   0.81228  0.90417  0.70989
V81   V   0.84583  0.06228  0.45989
V82   V   0.84583  0.43772  0.04011
V83   V   0.84583  0.56228  0.95989
V84   V   0.84583  0.93772  0.54011
V85   V   0.90417  0.20989  0.31228
V86   V   0.90417  0.29011  0.18772
V87   V   0.90417  0.70989  0.81228
V88   V   0.90417  0.79011  0.68772
V89   V   0.93772  0.04011  0.34583
V90   V   0.93772  0.45989  0.15417
V91   V   0.93772  0.54011  0.84583
V92   V   0.93772  0.95989  0.65417
V93   V   0.95989  0.15417  0.43772
V94   V   0.95989  0.34583  0.06228
V95   V   0.95989  0.65417  0.93772
V96   V   0.95989  0.84583  0.56228
E1    E   0.00000  0.00000  0.34583
E2    E   0.00000  0.00000  0.65417
E3    E   0.00000  0.15417  0.50000
E4    E   0.00000  0.34583  0.00000
E5    E   0.00000  0.50000  0.15417
E6    E   0.00000  0.50000  0.84583
E7    E   0.00000  0.65417  0.00000
E8    E   0.00000  0.84583  0.50000
E9    E   0.05119  0.09714  0.60822
E10   E   0.05119  0.40286  0.89178
E11   E   0.05119  0.59714  0.10822
E12   E   0.05119  0.90286  0.39178
E13   E   0.06797  0.18203  0.62500
E14   E   0.06797  0.31797  0.87500
E15   E   0.06797  0.68203  0.12500
E16   E   0.06797  0.81797  0.37500
E17   E   0.06797  0.18203  0.62500
E18   E   0.06797  0.31797  0.87500
E19   E   0.06797  0.68203  0.12500
E20   E   0.06797  0.81797  0.37500
E21   E   0.09583  0.25000  0.75000
E22   E   0.09583  0.75000  0.25000
E23   E   0.09714  0.10822  0.55119
E24   E   0.09714  0.39178  0.94881
E25   E   0.09714  0.60822  0.05119
E26   E   0.09714  0.89178  0.44881
E27   E   0.10822  0.05119  0.59714
E28   E   0.10822  0.44881  0.90286
E29   E   0.10822  0.55119  0.09714
E30   E   0.10822  0.94881  0.40286
E31   E   0.12500  0.06797  0.68203
E32   E   0.12500  0.06797  0.68203
E33   E   0.12500  0.43203  0.81797
E34   E   0.12500  0.56797  0.18203
E35   E   0.12500  0.56797  0.18203
E36   E   0.12500  0.93203  0.31797
E37   E   0.12500  0.93203  0.31797
E38   E   0.14178  0.15286  0.69881
E39   E   0.14178  0.34714  0.80119
E40   E   0.14178  0.65286  0.19881
E41   E   0.14178  0.84714  0.30119
E42   E   0.15286  0.19881  0.64178
E43   E   0.15286  0.30119  0.85822
E44   E   0.15286  0.69881  0.14178
E45   E   0.15286  0.80119  0.35822
E46   E   0.15417  0.00000  0.50000
E47   E   0.15417  0.50000  0.00000
E48   E   0.18203  0.12500  0.56797
E49   E   0.18203  0.37500  0.93203
E50   E   0.18203  0.62500  0.06797
E51   E   0.18203  0.87500  0.43203
E52   E   0.18203  0.12500  0.56797
E53   E   0.18203  0.37500  0.93203
E54   E   0.18203  0.62500  0.06797
E55   E   0.18203  0.87500  0.43203
E56   E   0.19881  0.14178  0.65286
E57   E   0.19881  0.35822  0.84714
E58   E   0.19881  0.64178  0.15286
E59   E   0.19881  0.85822  0.34714
E60   E   0.25000  0.09583  0.75000
E61   E   0.25000  0.25000  0.59583
E62   E   0.25000  0.25000  0.90417
E63   E   0.25000  0.40417  0.75000
E64   E   0.25000  0.59583  0.25000
E65   E   0.25000  0.75000  0.09583
E66   E   0.25000  0.75000  0.40417
E67   E   0.25000  0.90417  0.25000
E68   E   0.30119  0.14178  0.84714
E69   E   0.30119  0.35822  0.65286
E70   E   0.30119  0.64178  0.34714
E71   E   0.30119  0.85822  0.15286
E72   E   0.31797  0.12500  0.93203
E73   E   0.31797  0.37500  0.56797
E74   E   0.31797  0.62500  0.43203
E75   E   0.31797  0.87500  0.06797
E76   E   0.31797  0.12500  0.93203
E77   E   0.31797  0.37500  0.56797
E78   E   0.31797  0.62500  0.43203
E79   E   0.31797  0.87500  0.06797
E80   E   0.34583  0.00000  0.00000
E81   E   0.34583  0.50000  0.50000
E82   E   0.34714  0.19881  0.85822
E83   E   0.34714  0.30119  0.64178
E84   E   0.34714  0.69881  0.35822
E85   E   0.34714  0.80119  0.14178
E86   E   0.35822  0.15286  0.80119
E87   E   0.35822  0.34714  0.69881
E88   E   0.35822  0.65286  0.30119
E89   E   0.35822  0.84714  0.19881
E90   E   0.37500  0.06797  0.81797
E91   E   0.37500  0.06797  0.81797
E92   E   0.37500  0.43203  0.68203
E93   E   0.37500  0.56797  0.31797
E94   E   0.37500  0.56797  0.31797
E95   E   0.37500  0.93203  0.18203
E96   E   0.37500  0.93203  0.18203
E97   E   0.39178  0.05119  0.90286
E98   E   0.39178  0.44881  0.59714
E99   E   0.39178  0.55119  0.40286
E100  E   0.39178  0.94881  0.09714
E101  E   0.40286  0.10822  0.94881
E102  E   0.40286  0.39178  0.55119
E103  E   0.40286  0.60822  0.44881
E104  E   0.40286  0.89178  0.05119
E105  E   0.40417  0.25000  0.75000
E106  E   0.40417  0.75000  0.25000
E107  E   0.43203  0.18203  0.87500
E108  E   0.43203  0.18203  0.87500
E109  E   0.43203  0.31797  0.62500
E110  E   0.43203  0.31797  0.62500
E111  E   0.43203  0.68203  0.37500
E112  E   0.43203  0.81797  0.12500
E113  E   0.44881  0.09714  0.89178
E114  E   0.44881  0.40286  0.60822
E115  E   0.44881  0.59714  0.39178
E116  E   0.44881  0.90286  0.10822
E117  E   0.50000  0.00000  0.15417
E118  E   0.50000  0.00000  0.84583
E119  E   0.50000  0.15417  0.00000
E120  E   0.50000  0.34583  0.50000
E121  E   0.50000  0.50000  0.34583
E122  E   0.50000  0.50000  0.65417
E123  E   0.50000  0.65417  0.50000
E124  E   0.50000  0.84583  0.00000
E125  E   0.55119  0.09714  0.10822
E126  E   0.55119  0.40286  0.39178
E127  E   0.55119  0.59714  0.60822
E128  E   0.55119  0.90286  0.89178
E129  E   0.56797  0.18203  0.12500
E130  E   0.56797  0.18203  0.12500
E131  E   0.56797  0.31797  0.37500
E132  E   0.56797  0.31797  0.37500
E133  E   0.56797  0.68203  0.62500
E134  E   0.56797  0.81797  0.87500
E135  E   0.59583  0.25000  0.25000
E136  E   0.59583  0.75000  0.75000
E137  E   0.59714  0.10822  0.05119
E138  E   0.59714  0.39178  0.44881
E139  E   0.59714  0.60822  0.55119
E140  E   0.59714  0.89178  0.94881
E141  E   0.60822  0.05119  0.09714
E142  E   0.60822  0.44881  0.40286
E143  E   0.60822  0.55119  0.59714
E144  E   0.60822  0.94881  0.90286
E145  E   0.62500  0.06797  0.18203
E146  E   0.62500  0.06797  0.18203
E147  E   0.62500  0.43203  0.31797
E148  E   0.62500  0.43203  0.31797
E149  E   0.62500  0.56797  0.68203
E150  E   0.62500  0.93203  0.81797
E151  E   0.64178  0.15286  0.19881
E152  E   0.64178  0.34714  0.30119
E153  E   0.64178  0.65286  0.69881
E154  E   0.64178  0.84714  0.80119
E155  E   0.65286  0.19881  0.14178
E156  E   0.65286  0.30119  0.35822
E157  E   0.65286  0.69881  0.64178
E158  E   0.65286  0.80119  0.85822
E159  E   0.65417  0.00000  0.00000
E160  E   0.65417  0.50000  0.50000
E161  E   0.68203  0.12500  0.06797
E162  E   0.68203  0.12500  0.06797
E163  E   0.68203  0.37500  0.43203
E164  E   0.68203  0.62500  0.56797
E165  E   0.68203  0.87500  0.93203
E166  E   0.69881  0.14178  0.15286
E167  E   0.69881  0.35822  0.34714
E168  E   0.69881  0.64178  0.65286
E169  E   0.69881  0.85822  0.84714
E170  E   0.75000  0.09583  0.25000
E171  E   0.75000  0.25000  0.09583
E172  E   0.75000  0.25000  0.40417
E173  E   0.75000  0.40417  0.25000
E174  E   0.75000  0.59583  0.75000
E175  E   0.75000  0.75000  0.59583
E176  E   0.75000  0.75000  0.90417
E177  E   0.75000  0.90417  0.75000
E178  E   0.80119  0.14178  0.34714
E179  E   0.80119  0.35822  0.15286
E180  E   0.80119  0.64178  0.84714
E181  E   0.80119  0.85822  0.65286
E182  E   0.81797  0.12500  0.43203
E183  E   0.81797  0.37500  0.06797
E184  E   0.81797  0.37500  0.06797
E185  E   0.81797  0.62500  0.93203
E186  E   0.81797  0.87500  0.56797
E187  E   0.84583  0.00000  0.50000
E188  E   0.84583  0.50000  0.00000
E189  E   0.84714  0.19881  0.35822
E190  E   0.84714  0.30119  0.14178
E191  E   0.84714  0.69881  0.85822
E192  E   0.84714  0.80119  0.64178
E193  E   0.85822  0.15286  0.30119
E194  E   0.85822  0.34714  0.19881
E195  E   0.85822  0.65286  0.80119
E196  E   0.85822  0.84714  0.69881
E197  E   0.87500  0.06797  0.31797
E198  E   0.87500  0.06797  0.31797
E199  E   0.87500  0.43203  0.18203
E200  E   0.87500  0.43203  0.18203
E201  E   0.87500  0.56797  0.81797
E202  E   0.87500  0.93203  0.68203
E203  E   0.89178  0.05119  0.40286
E204  E   0.89178  0.44881  0.09714
E205  E   0.89178  0.55119  0.90286
E206  E   0.89178  0.94881  0.59714
E207  E   0.90286  0.10822  0.44881
E208  E   0.90286  0.39178  0.05119
E209  E   0.90286  0.60822  0.94881
E210  E   0.90286  0.89178  0.55119
E211  E   0.90417  0.25000  0.25000
E212  E   0.90417  0.75000  0.75000
E213  E   0.93203  0.18203  0.37500
E214  E   0.93203  0.18203  0.37500
E215  E   0.93203  0.31797  0.12500
E216  E   0.93203  0.31797  0.12500
E217  E   0.93203  0.68203  0.87500
E218  E   0.93203  0.81797  0.62500
E219  E   0.94881  0.09714  0.39178
E220  E   0.94881  0.40286  0.10822
E221  E   0.94881  0.59714  0.89178
E222  E   0.94881  0.90286  0.60822
loop_
