data_umi_I41/amd:2  hall_number: 427, V_con: 4
_audit_creation_date              2025-03-05
_audit_creation_method            'MOFbuilder_1.0'
_symmetry_space_group_name_H-M    'P1'
_symmetry_Int_Tables_number       1
_symmetry_cell_setting            triclinic
loop_
_symmetry_equiv_pos_as_xyz
  x,y,z
_cell_length_a                    30.2145
_cell_length_b                    30.2145
_cell_length_c                    62.088
_cell_angle_alpha                 90.0
_cell_angle_beta                  90.0
_cell_angle_gamma                 90.0
loop_
_atom_site_label
_atom_site_type_symbol
_atom_site_fract_x
_atom_site_fract_y
_atom_site_fract_z
V1    V   0.16526  0.08445  0.06927
V2    V   0.16526  0.41555  0.06927
V3    V   0.16526  0.58445  0.93073
V4    V   0.16526  0.91555  0.93073
V5    V   0.16555  0.08474  0.68073
V6    V   0.16555  0.41526  0.68073
V7    V   0.16555  0.58474  0.31927
V8    V   0.16555  0.91526  0.31927
V9    V   0.33445  0.08474  0.81927
V10   V   0.33445  0.41526  0.81927
V11   V   0.33445  0.58474  0.18073
V12   V   0.33445  0.91526  0.18073
V13   V   0.33474  0.08445  0.43073
V14   V   0.33474  0.41555  0.43073
V15   V   0.33474  0.58445  0.56927
V16   V   0.33474  0.91555  0.56927
V17   V   0.66526  0.08445  0.43073
V18   V   0.66526  0.41555  0.43073
V19   V   0.66526  0.58445  0.56927
V20   V   0.66526  0.91555  0.56927
V21   V   0.66555  0.08474  0.81927
V22   V   0.66555  0.41526  0.81927
V23   V   0.66555  0.58474  0.18073
V24   V   0.66555  0.91526  0.18073
V25   V   0.83445  0.08474  0.68073
V26   V   0.83445  0.41526  0.68073
V27   V   0.83445  0.58474  0.31927
V28   V   0.83445  0.91526  0.31927
V29   V   0.83474  0.08445  0.06927
V30   V   0.83474  0.41555  0.06927
V31   V   0.83474  0.58445  0.93073
V32   V   0.83474  0.91555  0.93073
E1    E   0.00000  0.08445  0.06927
E2    E   0.00000  0.08474  0.68073
E3    E   0.00000  0.41526  0.68073
E4    E   0.00000  0.41555  0.06927
E5    E   0.00000  0.58445  0.93073
E6    E   0.00000  0.58474  0.31927
E7    E   0.00000  0.91526  0.31927
E8    E   0.00000  0.91555  0.93073
E9    E   0.16526  0.00000  0.00000
E10   E   0.16526  0.25000  0.06927
E11   E   0.16526  0.50000  0.00000
E12   E   0.16526  0.75000  0.93073
E13   E   0.16555  0.25000  0.68073
E14   E   0.16555  0.75000  0.31927
E15   E   0.24986  0.00014  0.87500
E16   E   0.24986  0.00014  0.87500
E17   E   0.24986  0.49986  0.87500
E18   E   0.24986  0.49986  0.87500
E19   E   0.24986  0.50014  0.12500
E20   E   0.24986  0.99986  0.12500
E21   E   0.25000  0.08474  0.75000
E22   E   0.25000  0.41526  0.75000
E23   E   0.25000  0.58474  0.25000
E24   E   0.25000  0.91526  0.25000
E25   E   0.25014  0.00014  0.62500
E26   E   0.25014  0.49986  0.62500
E27   E   0.25014  0.50014  0.37500
E28   E   0.25014  0.99986  0.37500
E29   E   0.25014  0.00014  0.62500
E30   E   0.25014  0.49986  0.62500
E31   E   0.25014  0.50014  0.37500
E32   E   0.25014  0.99986  0.37500
E33   E   0.33445  0.25000  0.81927
E34   E   0.33445  0.75000  0.18073
E35   E   0.33474  0.00000  0.50000
E36   E   0.33474  0.25000  0.43073
E37   E   0.33474  0.50000  0.50000
E38   E   0.33474  0.75000  0.56927
E39   E   0.50000  0.08445  0.43073
E40   E   0.50000  0.08474  0.81927
E41   E   0.50000  0.41526  0.81927
E42   E   0.50000  0.41555  0.43073
E43   E   0.50000  0.58445  0.56927
E44   E   0.50000  0.58474  0.18073
E45   E   0.50000  0.91526  0.18073
E46   E   0.50000  0.91555  0.56927
E47   E   0.66526  0.00000  0.50000
E48   E   0.66526  0.25000  0.43073
E49   E   0.66526  0.50000  0.50000
E50   E   0.66526  0.75000  0.56927
E51   E   0.66555  0.25000  0.81927
E52   E   0.66555  0.75000  0.18073
E53   E   0.74986  0.00014  0.62500
E54   E   0.74986  0.00014  0.62500
E55   E   0.74986  0.49986  0.62500
E56   E   0.74986  0.49986  0.62500
E57   E   0.74986  0.50014  0.37500
E58   E   0.74986  0.99986  0.37500
E59   E   0.75000  0.08474  0.75000
E60   E   0.75000  0.41526  0.75000
E61   E   0.75000  0.58474  0.25000
E62   E   0.75000  0.91526  0.25000
E63   E   0.75014  0.00014  0.87500
E64   E   0.75014  0.00014  0.87500
E65   E   0.75014  0.49986  0.87500
E66   E   0.75014  0.49986  0.87500
E67   E   0.75014  0.50014  0.12500
E68   E   0.75014  0.99986  0.12500
E69   E   0.83445  0.25000  0.68073
E70   E   0.83445  0.75000  0.31927
E71   E   0.83474  0.00000  0.00000
E72   E   0.83474  0.25000  0.06927
E73   E   0.83474  0.50000  0.00000
E74   E   0.83474  0.75000  0.93073
loop_
