data_uml_R-3c:H  hall_number: 167, V_con: 4
_audit_creation_date              2025-03-05
_audit_creation_method            'MOFbuilder_1.0'
_symmetry_space_group_name_H-M    'P1'
_symmetry_Int_Tables_number       1
_symmetry_cell_setting            triclinic
loop_
_symmetry_equiv_pos_as_xyz
  x,y,z
_cell_length_a                    66.3798
_cell_length_b                    66.3798
_cell_length_c                    19.2522
_cell_angle_alpha                 90.0
_cell_angle_beta                  90.0
_cell_angle_gamma                 120.0
loop_
_atom_site_label
_atom_site_type_symbol
_atom_site_fract_x
_atom_site_fract_y
_atom_site_fract_z
V1    V   0.35689  0.10594  0.16667
V2    V   0.35689  0.39406  0.66667
V3    V   0.85689  0.60594  0.33333
V4    V   0.85689  0.89406  0.83333
E1    E   0.33333  0.09416  0.41667
E2    E   0.33333  0.09416  0.91667
E3    E   0.33333  0.16667  0.16667
E4    E   0.33333  0.33333  0.66667
E5    E   0.33333  0.40584  0.41667
E6    E   0.33333  0.40584  0.91667
E7    E   0.39808  0.06475  0.08333
E8    E   0.39808  0.43525  0.58333
E9    E   0.83333  0.59416  0.08333
E10   E   0.83333  0.59416  0.58333
E11   E   0.83333  0.66667  0.33333
E12   E   0.83333  0.83333  0.83333
E13   E   0.83333  0.90584  0.08333
E14   E   0.83333  0.90584  0.58333
E15   E   0.89808  0.56475  0.41667
E16   E   0.89808  0.93525  0.91667
loop_
