data_ums_R-3c:H  hall_number: 167, V_con: 4
_audit_creation_date              2025-03-05
_audit_creation_method            'MOFbuilder_1.0'
_symmetry_space_group_name_H-M    'P1'
_symmetry_Int_Tables_number       1
_symmetry_cell_setting            triclinic
loop_
_symmetry_equiv_pos_as_xyz
  x,y,z
_cell_length_a                    68.5444
_cell_length_b                    68.5444
_cell_length_c                    15.8788
_cell_angle_alpha                 90.0
_cell_angle_beta                  90.0
_cell_angle_gamma                 120.0
loop_
_atom_site_label
_atom_site_type_symbol
_atom_site_fract_x
_atom_site_fract_y
_atom_site_fract_z
V1    V   0.17158  0.24554  0.69387
V2    V   0.17158  0.25446  0.19387
V3    V   0.67158  0.74554  0.80613
V4    V   0.67158  0.75446  0.30613
E1    E   0.12723  0.24554  0.44387
E2    E   0.12723  0.25446  0.94387
E3    E   0.21102  0.16667  0.58333
E4    E   0.21102  0.33333  0.08333
E5    E   0.21302  0.21302  0.25000
E6    E   0.21302  0.28698  0.75000
E7    E   0.62723  0.74554  0.05613
E8    E   0.62723  0.75446  0.55613
E9    E   0.71102  0.66667  0.91667
E10   E   0.71102  0.83333  0.41667
E11   E   0.71302  0.71302  0.25000
E12   E   0.71302  0.78698  0.75000
loop_
