data_unb_R-3m:H  hall_number: 166, V_con: 4
_audit_creation_date              2025-03-05
_audit_creation_method            'MOFbuilder_1.0'
_symmetry_space_group_name_H-M    'P1'
_symmetry_Int_Tables_number       1
_symmetry_cell_setting            triclinic
loop_
_symmetry_equiv_pos_as_xyz
  x,y,z
_cell_length_a                    43.5509
_cell_length_b                    43.5509
_cell_length_c                    16.1711
_cell_angle_alpha                 90.0
_cell_angle_beta                  90.0
_cell_angle_gamma                 120.0
loop_
_atom_site_label
_atom_site_type_symbol
_atom_site_fract_x
_atom_site_fract_y
_atom_site_fract_z
V1    V   0.12766  0.25533  0.08333
V2    V   0.12766  0.75533  0.41667
V3    V   0.62766  0.24467  0.58333
V4    V   0.62766  0.74467  0.91667
E1    E   0.16667  0.33333  0.33333
E2    E   0.16667  0.33333  0.83333
E3    E   0.16667  0.83333  0.16667
E4    E   0.16667  0.83333  0.66667
E5    E   0.19149  0.19149  0.00000
E6    E   0.19149  0.69149  0.50000
E7    E   0.66667  0.16667  0.33333
E8    E   0.66667  0.16667  0.83333
E9    E   0.66667  0.66667  0.16667
E10   E   0.66667  0.66667  0.66667
E11   E   0.69149  0.30851  0.50000
E12   E   0.69149  0.80851  0.00000
loop_
