data_une_R-3:H  hall_number: 148, V_con: 4
_audit_creation_date              2025-03-05
_audit_creation_method            'MOFbuilder_1.0'
_symmetry_space_group_name_H-M    'P1'
_symmetry_Int_Tables_number       1
_symmetry_cell_setting            triclinic
loop_
_symmetry_equiv_pos_as_xyz
  x,y,z
_cell_length_a                    26.0134
_cell_length_b                    26.0134
_cell_length_c                    36.5514
_cell_angle_alpha                 90.0
_cell_angle_beta                  90.0
_cell_angle_gamma                 120.0
loop_
_atom_site_label
_atom_site_type_symbol
_atom_site_fract_x
_atom_site_fract_y
_atom_site_fract_z
V1    V   0.12309  0.57453  0.05981
V2    V   0.37691  0.07453  0.05981
V3    V   0.62309  0.57453  0.94019
V4    V   0.87691  0.07453  0.94019
E1    E   0.00000  0.00000  0.00000
E2    E   0.00000  0.50000  0.00000
E3    E   0.16667  0.66667  0.16667
E4    E   0.22572  0.88608  0.00000
E5    E   0.27428  0.38608  0.00000
E6    E   0.33333  0.16667  0.16667
E7    E   0.50000  0.00000  0.00000
E8    E   0.50000  0.50000  0.00000
E9    E   0.66667  0.66667  0.83333
E10   E   0.72572  0.88608  0.00000
E11   E   0.77428  0.38608  0.00000
E12   E   0.83333  0.16667  0.83333
loop_
