data_unl_R-3c:H  hall_number: 167, V_con: 4
_audit_creation_date              2025-03-05
_audit_creation_method            'MOFbuilder_1.0'
_symmetry_space_group_name_H-M    'P1'
_symmetry_Int_Tables_number       1
_symmetry_cell_setting            triclinic
loop_
_symmetry_equiv_pos_as_xyz
  x,y,z
_cell_length_a                    43.7978
_cell_length_b                    43.7978
_cell_length_c                    27.4713
_cell_angle_alpha                 90.0
_cell_angle_beta                  90.0
_cell_angle_gamma                 120.0
loop_
_atom_site_label
_atom_site_type_symbol
_atom_site_fract_x
_atom_site_fract_y
_atom_site_fract_z
V1    V   0.21486  0.13739  0.10274
V2    V   0.21486  0.36261  0.60274
V3    V   0.71486  0.63739  0.39726
V4    V   0.71486  0.86261  0.89726
E1    E   0.17612  0.02996  0.00000
E2    E   0.17612  0.17612  0.25000
E3    E   0.17612  0.32388  0.75000
E4    E   0.17612  0.47004  0.50000
E5    E   0.33333  0.16667  0.16667
E6    E   0.33333  0.33333  0.66667
E7    E   0.67612  0.52996  0.50000
E8    E   0.67612  0.67612  0.25000
E9    E   0.67612  0.82388  0.75000
E10   E   0.67612  0.97004  0.00000
E11   E   0.83333  0.66667  0.33333
E12   E   0.83333  0.83333  0.83333
loop_
