data_unu_R-3c:H  hall_number: 167, V_con: 4
_audit_creation_date              2025-03-05
_audit_creation_method            'MOFbuilder_1.0'
_symmetry_space_group_name_H-M    'P1'
_symmetry_Int_Tables_number       1
_symmetry_cell_setting            triclinic
loop_
_symmetry_equiv_pos_as_xyz
  x,y,z
_cell_length_a                    28.0476
_cell_length_b                    28.0476
_cell_length_c                    85.5538
_cell_angle_alpha                 90.0
_cell_angle_beta                  90.0
_cell_angle_gamma                 120.0
loop_
_atom_site_label
_atom_site_type_symbol
_atom_site_fract_x
_atom_site_fract_y
_atom_site_fract_z
V1    V   0.22426  0.04392  0.12243
V2    V   0.22426  0.45608  0.62243
V3    V   0.72426  0.54392  0.37757
V4    V   0.72426  0.95608  0.87757
E1    E   0.09017  0.11213  0.12243
E2    E   0.09017  0.38787  0.62243
E3    E   0.30076  0.53258  0.58333
E4    E   0.30076  0.96742  0.08333
E5    E   0.33333  0.16667  0.16667
E6    E   0.33333  0.33333  0.66667
E7    E   0.59017  0.61213  0.37757
E8    E   0.59017  0.88787  0.87757
E9    E   0.80076  0.03258  0.91667
E10   E   0.80076  0.46742  0.41667
E11   E   0.83333  0.66667  0.33333
E12   E   0.83333  0.83333  0.83333
loop_
