data_uow_I41/acd:2  hall_number: 429, V_con: 4
_audit_creation_date              2025-03-05
_audit_creation_method            'MOFbuilder_1.0'
_symmetry_space_group_name_H-M    'P1'
_symmetry_Int_Tables_number       1
_symmetry_cell_setting            triclinic
loop_
_symmetry_equiv_pos_as_xyz
  x,y,z
_cell_length_a                    41.5219
_cell_length_b                    41.5219
_cell_length_c                    28.9507
_cell_angle_alpha                 90.0
_cell_angle_beta                  90.0
_cell_angle_gamma                 90.0
loop_
_atom_site_label
_atom_site_type_symbol
_atom_site_fract_x
_atom_site_fract_y
_atom_site_fract_z
V1    V   0.04607  0.11917  0.77480
V2    V   0.04607  0.38083  0.27480
V3    V   0.04607  0.61917  0.22520
V4    V   0.04607  0.88083  0.72520
V5    V   0.13083  0.20393  0.47520
V6    V   0.13083  0.29607  0.97520
V7    V   0.13083  0.70393  0.52480
V8    V   0.13083  0.79607  0.02480
V9    V   0.36917  0.20393  0.52480
V10   V   0.36917  0.29607  0.02480
V11   V   0.36917  0.70393  0.47520
V12   V   0.36917  0.79607  0.97520
V13   V   0.45393  0.11917  0.22520
V14   V   0.45393  0.38083  0.72520
V15   V   0.45393  0.61917  0.77480
V16   V   0.45393  0.88083  0.27480
V17   V   0.54607  0.11917  0.72520
V18   V   0.54607  0.38083  0.22520
V19   V   0.54607  0.61917  0.27480
V20   V   0.54607  0.88083  0.77480
V21   V   0.63083  0.20393  0.02480
V22   V   0.63083  0.29607  0.52480
V23   V   0.63083  0.70393  0.97520
V24   V   0.63083  0.79607  0.47520
V25   V   0.86917  0.20393  0.97520
V26   V   0.86917  0.29607  0.47520
V27   V   0.86917  0.70393  0.02480
V28   V   0.86917  0.79607  0.52480
V29   V   0.95393  0.11917  0.27480
V30   V   0.95393  0.38083  0.77480
V31   V   0.95393  0.61917  0.72520
V32   V   0.95393  0.88083  0.22520
E1    E   0.04238  0.16155  0.37500
E2    E   0.04238  0.33845  0.87500
E3    E   0.04238  0.66155  0.62500
E4    E   0.04238  0.83845  0.12500
E5    E   0.04607  0.00000  0.75000
E6    E   0.04607  0.50000  0.25000
E7    E   0.08845  0.16155  0.62500
E8    E   0.08845  0.33845  0.12500
E9    E   0.08845  0.66155  0.37500
E10   E   0.08845  0.83845  0.87500
E11   E   0.08845  0.16155  0.62500
E12   E   0.08845  0.20762  0.87500
E13   E   0.08845  0.29238  0.37500
E14   E   0.08845  0.33845  0.12500
E15   E   0.08845  0.66155  0.37500
E16   E   0.08845  0.70762  0.12500
E17   E   0.08845  0.79238  0.62500
E18   E   0.08845  0.83845  0.87500
E19   E   0.25000  0.20393  0.50000
E20   E   0.25000  0.29607  0.00000
E21   E   0.25000  0.70393  0.50000
E22   E   0.25000  0.79607  0.00000
E23   E   0.41155  0.16155  0.37500
E24   E   0.41155  0.20762  0.12500
E25   E   0.41155  0.29238  0.62500
E26   E   0.41155  0.33845  0.87500
E27   E   0.41155  0.66155  0.62500
E28   E   0.41155  0.70762  0.87500
E29   E   0.41155  0.79238  0.37500
E30   E   0.41155  0.83845  0.12500
E31   E   0.41155  0.16155  0.37500
E32   E   0.41155  0.33845  0.87500
E33   E   0.41155  0.66155  0.62500
E34   E   0.41155  0.83845  0.12500
E35   E   0.45393  0.00000  0.25000
E36   E   0.45393  0.50000  0.75000
E37   E   0.45762  0.16155  0.62500
E38   E   0.45762  0.33845  0.12500
E39   E   0.45762  0.66155  0.37500
E40   E   0.45762  0.83845  0.87500
E41   E   0.54238  0.16155  0.12500
E42   E   0.54238  0.33845  0.62500
E43   E   0.54238  0.66155  0.87500
E44   E   0.54238  0.83845  0.37500
E45   E   0.54607  0.00000  0.75000
E46   E   0.54607  0.50000  0.25000
E47   E   0.58845  0.16155  0.87500
E48   E   0.58845  0.33845  0.37500
E49   E   0.58845  0.66155  0.12500
E50   E   0.58845  0.83845  0.62500
E51   E   0.58845  0.16155  0.87500
E52   E   0.58845  0.20762  0.62500
E53   E   0.58845  0.29238  0.12500
E54   E   0.58845  0.33845  0.37500
E55   E   0.58845  0.66155  0.12500
E56   E   0.58845  0.70762  0.37500
E57   E   0.58845  0.79238  0.87500
E58   E   0.58845  0.83845  0.62500
E59   E   0.75000  0.20393  0.00000
E60   E   0.75000  0.29607  0.50000
E61   E   0.75000  0.70393  0.00000
E62   E   0.75000  0.79607  0.50000
E63   E   0.91155  0.16155  0.12500
E64   E   0.91155  0.20762  0.37500
E65   E   0.91155  0.29238  0.87500
E66   E   0.91155  0.33845  0.62500
E67   E   0.91155  0.66155  0.87500
E68   E   0.91155  0.70762  0.62500
E69   E   0.91155  0.79238  0.12500
E70   E   0.91155  0.83845  0.37500
E71   E   0.91155  0.16155  0.12500
E72   E   0.91155  0.33845  0.62500
E73   E   0.91155  0.66155  0.87500
E74   E   0.91155  0.83845  0.37500
E75   E   0.95393  0.00000  0.25000
E76   E   0.95393  0.50000  0.75000
E77   E   0.95762  0.16155  0.87500
E78   E   0.95762  0.33845  0.37500
E79   E   0.95762  0.66155  0.12500
E80   E   0.95762  0.83845  0.62500
loop_
