data_uta-e_Fd-3m:2  hall_number: 526, V_con: 4, EC_con: 4
_audit_creation_date              2025-03-05
_audit_creation_method            'MOFbuilder_1.0'
_symmetry_space_group_name_H-M    'P1'
_symmetry_Int_Tables_number       1
_symmetry_cell_setting            triclinic
loop_
_symmetry_equiv_pos_as_xyz
  x,y,z
_cell_length_a                    77.2741
_cell_length_b                    77.2741
_cell_length_c                    77.2741
_cell_angle_alpha                 90.0
_cell_angle_beta                  90.0
_cell_angle_gamma                 90.0
loop_
_atom_site_label
_atom_site_type_symbol
_atom_site_fract_x
_atom_site_fract_y
_atom_site_fract_z
V1    V   0.09159  0.37500  0.37500
V2    V   0.09159  0.87500  0.87500
V3    V   0.12500  0.12500  0.34159
V4    V   0.12500  0.12500  0.90841
V5    V   0.12500  0.34159  0.12500
V6    V   0.12500  0.40841  0.62500
V7    V   0.12500  0.62500  0.40841
V8    V   0.12500  0.62500  0.84159
V9    V   0.12500  0.84159  0.62500
V10   V   0.12500  0.90841  0.12500
V11   V   0.15841  0.37500  0.87500
V12   V   0.15841  0.87500  0.37500
V13   V   0.34159  0.12500  0.12500
V14   V   0.34159  0.62500  0.62500
V15   V   0.37500  0.09159  0.37500
V16   V   0.37500  0.15841  0.87500
V17   V   0.37500  0.37500  0.09159
V18   V   0.37500  0.37500  0.65841
V19   V   0.37500  0.59159  0.87500
V20   V   0.37500  0.65841  0.37500
V21   V   0.37500  0.87500  0.15841
V22   V   0.37500  0.87500  0.59159
V23   V   0.40841  0.12500  0.62500
V24   V   0.40841  0.62500  0.12500
V25   V   0.59159  0.37500  0.87500
V26   V   0.59159  0.87500  0.37500
V27   V   0.62500  0.12500  0.40841
V28   V   0.62500  0.12500  0.84159
V29   V   0.62500  0.34159  0.62500
V30   V   0.62500  0.40841  0.12500
V31   V   0.62500  0.62500  0.34159
V32   V   0.62500  0.62500  0.90841
V33   V   0.62500  0.84159  0.12500
V34   V   0.62500  0.90841  0.62500
V35   V   0.65841  0.37500  0.37500
V36   V   0.65841  0.87500  0.87500
V37   V   0.84159  0.12500  0.62500
V38   V   0.84159  0.62500  0.12500
V39   V   0.87500  0.09159  0.87500
V40   V   0.87500  0.15841  0.37500
V41   V   0.87500  0.37500  0.15841
V42   V   0.87500  0.37500  0.59159
V43   V   0.87500  0.59159  0.37500
V44   V   0.87500  0.65841  0.87500
V45   V   0.87500  0.87500  0.09159
V46   V   0.87500  0.87500  0.65841
V47   V   0.90841  0.12500  0.12500
V48   V   0.90841  0.62500  0.62500
EC1    EC   0.00000  0.09151  0.90849
EC2    EC   0.00000  0.09151  0.90849
EC3    EC   0.00000  0.15849  0.34151
EC4    EC   0.00000  0.15849  0.34151
EC5    EC   0.00000  0.34151  0.15849
EC6    EC   0.00000  0.34151  0.15849
EC7    EC   0.00000  0.40849  0.59151
EC8    EC   0.00000  0.59151  0.40849
EC9    EC   0.00000  0.65849  0.84151
EC10   EC   0.00000  0.84151  0.65849
EC11   EC   0.00000  0.90849  0.09151
EC12   EC   0.00000  0.90849  0.09151
EC13   EC   0.09151  0.00000  0.90849
EC14   EC   0.09151  0.25000  0.34151
EC15   EC   0.09151  0.34151  0.25000
EC16   EC   0.09151  0.40849  0.50000
EC17   EC   0.09151  0.50000  0.40849
EC18   EC   0.09151  0.75000  0.84151
EC19   EC   0.09151  0.84151  0.75000
EC20   EC   0.09151  0.90849  0.00000
EC21   EC   0.09151  0.00000  0.90849
EC22   EC   0.09151  0.25000  0.34151
EC23   EC   0.09151  0.34151  0.25000
EC24   EC   0.09151  0.40849  0.50000
EC25   EC   0.09151  0.50000  0.40849
EC26   EC   0.09151  0.75000  0.84151
EC27   EC   0.09151  0.84151  0.75000
EC28   EC   0.09151  0.90849  0.00000
EC29   EC   0.15849  0.00000  0.34151
EC30   EC   0.15849  0.25000  0.90849
EC31   EC   0.15849  0.34151  0.00000
EC32   EC   0.15849  0.40849  0.75000
EC33   EC   0.15849  0.50000  0.84151
EC34   EC   0.15849  0.75000  0.40849
EC35   EC   0.15849  0.84151  0.50000
EC36   EC   0.15849  0.90849  0.25000
EC37   EC   0.15849  0.00000  0.34151
EC38   EC   0.15849  0.25000  0.90849
EC39   EC   0.15849  0.34151  0.00000
EC40   EC   0.15849  0.40849  0.75000
EC41   EC   0.15849  0.50000  0.84151
EC42   EC   0.15849  0.75000  0.40849
EC43   EC   0.15849  0.84151  0.50000
EC44   EC   0.15849  0.90849  0.25000
EC45   EC   0.25000  0.09151  0.34151
EC46   EC   0.25000  0.09151  0.34151
EC47   EC   0.25000  0.15849  0.90849
EC48   EC   0.25000  0.15849  0.90849
EC49   EC   0.25000  0.34151  0.09151
EC50   EC   0.25000  0.34151  0.09151
EC51   EC   0.25000  0.40849  0.65849
EC52   EC   0.25000  0.59151  0.84151
EC53   EC   0.25000  0.65849  0.40849
EC54   EC   0.25000  0.84151  0.59151
EC55   EC   0.25000  0.90849  0.15849
EC56   EC   0.25000  0.90849  0.15849
EC57   EC   0.34151  0.00000  0.15849
EC58   EC   0.34151  0.00000  0.15849
EC59   EC   0.34151  0.09151  0.25000
EC60   EC   0.34151  0.09151  0.25000
EC61   EC   0.34151  0.15849  0.00000
EC62   EC   0.34151  0.15849  0.00000
EC63   EC   0.34151  0.25000  0.09151
EC64   EC   0.34151  0.25000  0.09151
EC65   EC   0.34151  0.50000  0.65849
EC66   EC   0.34151  0.59151  0.75000
EC67   EC   0.34151  0.65849  0.50000
EC68   EC   0.34151  0.75000  0.59151
EC69   EC   0.40849  0.00000  0.59151
EC70   EC   0.40849  0.09151  0.50000
EC71   EC   0.40849  0.09151  0.50000
EC72   EC   0.40849  0.15849  0.75000
EC73   EC   0.40849  0.15849  0.75000
EC74   EC   0.40849  0.25000  0.65849
EC75   EC   0.40849  0.50000  0.09151
EC76   EC   0.40849  0.50000  0.09151
EC77   EC   0.40849  0.59151  0.00000
EC78   EC   0.40849  0.65849  0.25000
EC79   EC   0.40849  0.75000  0.15849
EC80   EC   0.40849  0.75000  0.15849
EC81   EC   0.50000  0.09151  0.40849
EC82   EC   0.50000  0.09151  0.40849
EC83   EC   0.50000  0.15849  0.84151
EC84   EC   0.50000  0.15849  0.84151
EC85   EC   0.50000  0.34151  0.65849
EC86   EC   0.50000  0.40849  0.09151
EC87   EC   0.50000  0.40849  0.09151
EC88   EC   0.50000  0.59151  0.90849
EC89   EC   0.50000  0.65849  0.34151
EC90   EC   0.50000  0.84151  0.15849
EC91   EC   0.50000  0.84151  0.15849
EC92   EC   0.50000  0.90849  0.59151
EC93   EC   0.59151  0.00000  0.40849
EC94   EC   0.59151  0.25000  0.84151
EC95   EC   0.59151  0.34151  0.75000
EC96   EC   0.59151  0.40849  0.00000
EC97   EC   0.59151  0.50000  0.90849
EC98   EC   0.59151  0.75000  0.34151
EC99   EC   0.59151  0.84151  0.25000
EC100  EC   0.59151  0.90849  0.50000
EC101  EC   0.65849  0.00000  0.84151
EC102  EC   0.65849  0.25000  0.40849
EC103  EC   0.65849  0.34151  0.50000
EC104  EC   0.65849  0.40849  0.25000
EC105  EC   0.65849  0.50000  0.34151
EC106  EC   0.65849  0.75000  0.90849
EC107  EC   0.65849  0.84151  0.00000
EC108  EC   0.65849  0.90849  0.75000
EC109  EC   0.75000  0.09151  0.84151
EC110  EC   0.75000  0.09151  0.84151
EC111  EC   0.75000  0.15849  0.40849
EC112  EC   0.75000  0.15849  0.40849
EC113  EC   0.75000  0.34151  0.59151
EC114  EC   0.75000  0.40849  0.15849
EC115  EC   0.75000  0.40849  0.15849
EC116  EC   0.75000  0.59151  0.34151
EC117  EC   0.75000  0.65849  0.90849
EC118  EC   0.75000  0.84151  0.09151
EC119  EC   0.75000  0.84151  0.09151
EC120  EC   0.75000  0.90849  0.65849
EC121  EC   0.84151  0.00000  0.65849
EC122  EC   0.84151  0.09151  0.75000
EC123  EC   0.84151  0.09151  0.75000
EC124  EC   0.84151  0.15849  0.50000
EC125  EC   0.84151  0.15849  0.50000
EC126  EC   0.84151  0.25000  0.59151
EC127  EC   0.84151  0.50000  0.15849
EC128  EC   0.84151  0.50000  0.15849
EC129  EC   0.84151  0.59151  0.25000
EC130  EC   0.84151  0.65849  0.00000
EC131  EC   0.84151  0.75000  0.09151
EC132  EC   0.84151  0.75000  0.09151
EC133  EC   0.90849  0.00000  0.09151
EC134  EC   0.90849  0.00000  0.09151
EC135  EC   0.90849  0.09151  0.00000
EC136  EC   0.90849  0.09151  0.00000
EC137  EC   0.90849  0.15849  0.25000
EC138  EC   0.90849  0.15849  0.25000
EC139  EC   0.90849  0.25000  0.15849
EC140  EC   0.90849  0.25000  0.15849
EC141  EC   0.90849  0.50000  0.59151
EC142  EC   0.90849  0.59151  0.50000
EC143  EC   0.90849  0.65849  0.75000
EC144  EC   0.90849  0.75000  0.65849
E1    E   0.04575  0.04575  0.90849
E2    E   0.04575  0.20425  0.34151
E3    E   0.04575  0.34151  0.20425
E4    E   0.04575  0.40849  0.54575
E5    E   0.04575  0.54575  0.40849
E6    E   0.04575  0.70425  0.84151
E7    E   0.04575  0.84151  0.70425
E8    E   0.04575  0.90849  0.04575
E9    E   0.04575  0.04575  0.90849
E10   E   0.04575  0.20425  0.34151
E11   E   0.04575  0.34151  0.20425
E12   E   0.04575  0.40849  0.54575
E13   E   0.04575  0.54575  0.40849
E14   E   0.04575  0.70425  0.84151
E15   E   0.04575  0.84151  0.70425
E16   E   0.04575  0.90849  0.04575
E17   E   0.06250  0.10825  0.90845
E18   E   0.06250  0.14175  0.34155
E19   E   0.06250  0.34155  0.14175
E20   E   0.06250  0.40845  0.60825
E21   E   0.06250  0.60825  0.40845
E22   E   0.06250  0.64175  0.84155
E23   E   0.06250  0.84155  0.64175
E24   E   0.06250  0.90845  0.10825
E25   E   0.09151  0.29575  0.29575
E26   E   0.09151  0.45425  0.45425
E27   E   0.09151  0.79575  0.79575
E28   E   0.09151  0.95425  0.95425
E29   E   0.09155  0.31250  0.35825
E30   E   0.09155  0.35825  0.31250
E31   E   0.09155  0.39175  0.43750
E32   E   0.09155  0.43750  0.39175
E33   E   0.09155  0.81250  0.85825
E34   E   0.09155  0.85825  0.81250
E35   E   0.09155  0.89175  0.93750
E36   E   0.09155  0.93750  0.89175
E37   E   0.10825  0.06250  0.90845
E38   E   0.10825  0.18750  0.34155
E39   E   0.10825  0.34155  0.18750
E40   E   0.10825  0.40845  0.56250
E41   E   0.10825  0.56250  0.40845
E42   E   0.10825  0.68750  0.84155
E43   E   0.10825  0.84155  0.68750
E44   E   0.10825  0.90845  0.06250
E45   E   0.14175  0.06250  0.34155
E46   E   0.14175  0.18750  0.90845
E47   E   0.14175  0.34155  0.06250
E48   E   0.14175  0.40845  0.68750
E49   E   0.14175  0.56250  0.84155
E50   E   0.14175  0.68750  0.40845
E51   E   0.14175  0.84155  0.56250
E52   E   0.14175  0.90845  0.18750
E53   E   0.15845  0.31250  0.89175
E54   E   0.15845  0.35825  0.93750
E55   E   0.15845  0.39175  0.81250
E56   E   0.15845  0.43750  0.85825
E57   E   0.15845  0.81250  0.39175
E58   E   0.15845  0.85825  0.43750
E59   E   0.15845  0.89175  0.31250
E60   E   0.15845  0.93750  0.35825
E61   E   0.15849  0.29575  0.95425
E62   E   0.15849  0.45425  0.79575
E63   E   0.15849  0.79575  0.45425
E64   E   0.15849  0.95425  0.29575
E65   E   0.18750  0.10825  0.34155
E66   E   0.18750  0.14175  0.90845
E67   E   0.18750  0.34155  0.10825
E68   E   0.18750  0.40845  0.64175
E69   E   0.18750  0.60825  0.84155
E70   E   0.18750  0.64175  0.40845
E71   E   0.18750  0.84155  0.60825
E72   E   0.18750  0.90845  0.14175
E73   E   0.20425  0.04575  0.34151
E74   E   0.20425  0.04575  0.34151
E75   E   0.20425  0.20425  0.90849
E76   E   0.20425  0.34151  0.04575
E77   E   0.20425  0.34151  0.04575
E78   E   0.20425  0.40849  0.70425
E79   E   0.20425  0.54575  0.84151
E80   E   0.20425  0.70425  0.40849
E81   E   0.20425  0.84151  0.54575
E82   E   0.20425  0.90849  0.20425
E83   E   0.29575  0.09151  0.29575
E84   E   0.29575  0.15849  0.95425
E85   E   0.29575  0.29575  0.09151
E86   E   0.29575  0.45425  0.65849
E87   E   0.29575  0.59151  0.79575
E88   E   0.29575  0.65849  0.45425
E89   E   0.29575  0.79575  0.59151
E90   E   0.29575  0.95425  0.15849
E91   E   0.31250  0.09155  0.35825
E92   E   0.31250  0.15845  0.89175
E93   E   0.31250  0.35825  0.09155
E94   E   0.31250  0.39175  0.65845
E95   E   0.31250  0.59155  0.85825
E96   E   0.31250  0.65845  0.39175
E97   E   0.31250  0.85825  0.59155
E98   E   0.31250  0.89175  0.15845
E99   E   0.34151  0.04575  0.20425
E100  E   0.34151  0.04575  0.20425
E101  E   0.34151  0.20425  0.04575
E102  E   0.34151  0.20425  0.04575
E103  E   0.34151  0.54575  0.70425
E104  E   0.34151  0.70425  0.54575
E105  E   0.34155  0.06250  0.14175
E106  E   0.34155  0.10825  0.18750
E107  E   0.34155  0.14175  0.06250
E108  E   0.34155  0.18750  0.10825
E109  E   0.34155  0.56250  0.64175
E110  E   0.34155  0.60825  0.68750
E111  E   0.34155  0.64175  0.56250
E112  E   0.34155  0.68750  0.60825
E113  E   0.35825  0.09155  0.31250
E114  E   0.35825  0.15845  0.93750
E115  E   0.35825  0.31250  0.09155
E116  E   0.35825  0.43750  0.65845
E117  E   0.35825  0.59155  0.81250
E118  E   0.35825  0.65845  0.43750
E119  E   0.35825  0.81250  0.59155
E120  E   0.35825  0.93750  0.15845
E121  E   0.39175  0.09155  0.43750
E122  E   0.39175  0.15845  0.81250
E123  E   0.39175  0.31250  0.65845
E124  E   0.39175  0.43750  0.09155
E125  E   0.39175  0.59155  0.93750
E126  E   0.39175  0.65845  0.31250
E127  E   0.39175  0.81250  0.15845
E128  E   0.39175  0.93750  0.59155
E129  E   0.40845  0.06250  0.60825
E130  E   0.40845  0.10825  0.56250
E131  E   0.40845  0.14175  0.68750
E132  E   0.40845  0.18750  0.64175
E133  E   0.40845  0.56250  0.10825
E134  E   0.40845  0.60825  0.06250
E135  E   0.40845  0.64175  0.18750
E136  E   0.40845  0.68750  0.14175
E137  E   0.40849  0.04575  0.54575
E138  E   0.40849  0.04575  0.54575
E139  E   0.40849  0.20425  0.70425
E140  E   0.40849  0.54575  0.04575
E141  E   0.40849  0.54575  0.04575
E142  E   0.40849  0.70425  0.20425
E143  E   0.43750  0.09155  0.39175
E144  E   0.43750  0.15845  0.85825
E145  E   0.43750  0.35825  0.65845
E146  E   0.43750  0.39175  0.09155
E147  E   0.43750  0.59155  0.89175
E148  E   0.43750  0.65845  0.35825
E149  E   0.43750  0.85825  0.15845
E150  E   0.43750  0.89175  0.59155
E151  E   0.45425  0.09151  0.45425
E152  E   0.45425  0.15849  0.79575
E153  E   0.45425  0.29575  0.65849
E154  E   0.45425  0.45425  0.09151
E155  E   0.45425  0.59151  0.95425
E156  E   0.45425  0.65849  0.29575
E157  E   0.45425  0.79575  0.15849
E158  E   0.45425  0.95425  0.59151
E159  E   0.54575  0.04575  0.40849
E160  E   0.54575  0.04575  0.40849
E161  E   0.54575  0.20425  0.84151
E162  E   0.54575  0.34151  0.70425
E163  E   0.54575  0.40849  0.04575
E164  E   0.54575  0.40849  0.04575
E165  E   0.54575  0.54575  0.90849
E166  E   0.54575  0.70425  0.34151
E167  E   0.54575  0.84151  0.20425
E168  E   0.54575  0.90849  0.54575
E169  E   0.56250  0.10825  0.40845
E170  E   0.56250  0.14175  0.84155
E171  E   0.56250  0.34155  0.64175
E172  E   0.56250  0.40845  0.10825
E173  E   0.56250  0.60825  0.90845
E174  E   0.56250  0.64175  0.34155
E175  E   0.56250  0.84155  0.14175
E176  E   0.56250  0.90845  0.60825
E177  E   0.59151  0.29575  0.79575
E178  E   0.59151  0.45425  0.95425
E179  E   0.59151  0.79575  0.29575
E180  E   0.59151  0.95425  0.45425
E181  E   0.59155  0.31250  0.85825
E182  E   0.59155  0.35825  0.81250
E183  E   0.59155  0.39175  0.93750
E184  E   0.59155  0.43750  0.89175
E185  E   0.59155  0.81250  0.35825
E186  E   0.59155  0.85825  0.31250
E187  E   0.59155  0.89175  0.43750
E188  E   0.59155  0.93750  0.39175
E189  E   0.60825  0.06250  0.40845
E190  E   0.60825  0.18750  0.84155
E191  E   0.60825  0.34155  0.68750
E192  E   0.60825  0.40845  0.06250
E193  E   0.60825  0.56250  0.90845
E194  E   0.60825  0.68750  0.34155
E195  E   0.60825  0.84155  0.18750
E196  E   0.60825  0.90845  0.56250
E197  E   0.64175  0.06250  0.84155
E198  E   0.64175  0.18750  0.40845
E199  E   0.64175  0.34155  0.56250
E200  E   0.64175  0.40845  0.18750
E201  E   0.64175  0.56250  0.34155
E202  E   0.64175  0.68750  0.90845
E203  E   0.64175  0.84155  0.06250
E204  E   0.64175  0.90845  0.68750
E205  E   0.65845  0.31250  0.39175
E206  E   0.65845  0.35825  0.43750
E207  E   0.65845  0.39175  0.31250
E208  E   0.65845  0.43750  0.35825
E209  E   0.65845  0.81250  0.89175
E210  E   0.65845  0.85825  0.93750
E211  E   0.65845  0.89175  0.81250
E212  E   0.65845  0.93750  0.85825
E213  E   0.65849  0.29575  0.45425
E214  E   0.65849  0.45425  0.29575
E215  E   0.65849  0.79575  0.95425
E216  E   0.65849  0.95425  0.79575
E217  E   0.68750  0.10825  0.84155
E218  E   0.68750  0.14175  0.40845
E219  E   0.68750  0.34155  0.60825
E220  E   0.68750  0.40845  0.14175
E221  E   0.68750  0.60825  0.34155
E222  E   0.68750  0.64175  0.90845
E223  E   0.68750  0.84155  0.10825
E224  E   0.68750  0.90845  0.64175
E225  E   0.70425  0.04575  0.84151
E226  E   0.70425  0.04575  0.84151
E227  E   0.70425  0.20425  0.40849
E228  E   0.70425  0.34151  0.54575
E229  E   0.70425  0.40849  0.20425
E230  E   0.70425  0.54575  0.34151
E231  E   0.70425  0.70425  0.90849
E232  E   0.70425  0.84151  0.04575
E233  E   0.70425  0.84151  0.04575
E234  E   0.70425  0.90849  0.70425
E235  E   0.79575  0.09151  0.79575
E236  E   0.79575  0.15849  0.45425
E237  E   0.79575  0.29575  0.59151
E238  E   0.79575  0.45425  0.15849
E239  E   0.79575  0.59151  0.29575
E240  E   0.79575  0.65849  0.95425
E241  E   0.79575  0.79575  0.09151
E242  E   0.79575  0.95425  0.65849
E243  E   0.81250  0.09155  0.85825
E244  E   0.81250  0.15845  0.39175
E245  E   0.81250  0.35825  0.59155
E246  E   0.81250  0.39175  0.15845
E247  E   0.81250  0.59155  0.35825
E248  E   0.81250  0.65845  0.89175
E249  E   0.81250  0.85825  0.09155
E250  E   0.81250  0.89175  0.65845
E251  E   0.84151  0.04575  0.70425
E252  E   0.84151  0.04575  0.70425
E253  E   0.84151  0.20425  0.54575
E254  E   0.84151  0.54575  0.20425
E255  E   0.84151  0.70425  0.04575
E256  E   0.84151  0.70425  0.04575
E257  E   0.84155  0.06250  0.64175
E258  E   0.84155  0.10825  0.68750
E259  E   0.84155  0.14175  0.56250
E260  E   0.84155  0.18750  0.60825
E261  E   0.84155  0.56250  0.14175
E262  E   0.84155  0.60825  0.18750
E263  E   0.84155  0.64175  0.06250
E264  E   0.84155  0.68750  0.10825
E265  E   0.85825  0.09155  0.81250
E266  E   0.85825  0.15845  0.43750
E267  E   0.85825  0.31250  0.59155
E268  E   0.85825  0.43750  0.15845
E269  E   0.85825  0.59155  0.31250
E270  E   0.85825  0.65845  0.93750
E271  E   0.85825  0.81250  0.09155
E272  E   0.85825  0.93750  0.65845
E273  E   0.89175  0.09155  0.93750
E274  E   0.89175  0.15845  0.31250
E275  E   0.89175  0.31250  0.15845
E276  E   0.89175  0.43750  0.59155
E277  E   0.89175  0.59155  0.43750
E278  E   0.89175  0.65845  0.81250
E279  E   0.89175  0.81250  0.65845
E280  E   0.89175  0.93750  0.09155
E281  E   0.90845  0.06250  0.10825
E282  E   0.90845  0.10825  0.06250
E283  E   0.90845  0.14175  0.18750
E284  E   0.90845  0.18750  0.14175
E285  E   0.90845  0.56250  0.60825
E286  E   0.90845  0.60825  0.56250
E287  E   0.90845  0.64175  0.68750
E288  E   0.90845  0.68750  0.64175
E289  E   0.90849  0.04575  0.04575
E290  E   0.90849  0.04575  0.04575
E291  E   0.90849  0.20425  0.20425
E292  E   0.90849  0.54575  0.54575
E293  E   0.90849  0.70425  0.70425
E294  E   0.93750  0.09155  0.89175
E295  E   0.93750  0.15845  0.35825
E296  E   0.93750  0.35825  0.15845
E297  E   0.93750  0.39175  0.59155
E298  E   0.93750  0.59155  0.39175
E299  E   0.93750  0.65845  0.85825
E300  E   0.93750  0.85825  0.65845
E301  E   0.93750  0.89175  0.09155
E302  E   0.95425  0.09151  0.95425
E303  E   0.95425  0.15849  0.29575
E304  E   0.95425  0.29575  0.15849
E305  E   0.95425  0.45425  0.59151
E306  E   0.95425  0.59151  0.45425
E307  E   0.95425  0.65849  0.79575
E308  E   0.95425  0.79575  0.65849
E309  E   0.95425  0.95425  0.09151
loop_
