data_utb_I432  hall_number: 507, V_con: 3
_audit_creation_date              2025-03-05
_audit_creation_method            'MOFbuilder_1.0'
_symmetry_space_group_name_H-M    'P1'
_symmetry_Int_Tables_number       1
_symmetry_cell_setting            triclinic
loop_
_symmetry_equiv_pos_as_xyz
  x,y,z
_cell_length_a                    34.1421
_cell_length_b                    34.1421
_cell_length_c                    34.1421
_cell_angle_alpha                 90.0
_cell_angle_beta                  90.0
_cell_angle_gamma                 90.0
loop_
_atom_site_label
_atom_site_type_symbol
_atom_site_fract_x
_atom_site_fract_y
_atom_site_fract_z
V1    V   0.10355  0.25000  0.60355
V2    V   0.10355  0.39645  0.25000
V3    V   0.10355  0.60355  0.75000
V4    V   0.10355  0.75000  0.39645
V5    V   0.10355  0.25000  0.60355
V6    V   0.10355  0.39645  0.25000
V7    V   0.10355  0.60355  0.75000
V8    V   0.10355  0.75000  0.39645
V9    V   0.25000  0.10355  0.39645
V10   V   0.25000  0.10355  0.39645
V11   V   0.25000  0.39645  0.89645
V12   V   0.25000  0.39645  0.89645
V13   V   0.25000  0.60355  0.10355
V14   V   0.25000  0.60355  0.10355
V15   V   0.25000  0.89645  0.60355
V16   V   0.39645  0.10355  0.75000
V17   V   0.39645  0.25000  0.10355
V18   V   0.39645  0.75000  0.89645
V19   V   0.39645  0.89645  0.25000
V20   V   0.39645  0.10355  0.75000
V21   V   0.39645  0.25000  0.10355
V22   V   0.39645  0.75000  0.89645
V23   V   0.39645  0.89645  0.25000
V24   V   0.60355  0.10355  0.25000
V25   V   0.60355  0.10355  0.25000
V26   V   0.60355  0.25000  0.89645
V27   V   0.60355  0.75000  0.10355
V28   V   0.60355  0.75000  0.10355
V29   V   0.60355  0.89645  0.75000
V30   V   0.75000  0.10355  0.60355
V31   V   0.75000  0.10355  0.60355
V32   V   0.75000  0.39645  0.10355
V33   V   0.75000  0.39645  0.10355
V34   V   0.75000  0.60355  0.89645
V35   V   0.75000  0.89645  0.39645
V36   V   0.75000  0.89645  0.39645
V37   V   0.89645  0.25000  0.39645
V38   V   0.89645  0.25000  0.39645
V39   V   0.89645  0.39645  0.75000
V40   V   0.89645  0.39645  0.75000
V41   V   0.89645  0.60355  0.25000
V42   V   0.89645  0.75000  0.60355
E1    E   0.00000  0.25000  0.50000
E2    E   0.00000  0.32322  0.32322
E3    E   0.00000  0.32322  0.67678
E4    E   0.00000  0.50000  0.25000
E5    E   0.00000  0.50000  0.75000
E6    E   0.00000  0.67678  0.32322
E7    E   0.00000  0.67678  0.67678
E8    E   0.00000  0.75000  0.50000
E9    E   0.17678  0.17678  0.50000
E10   E   0.17678  0.50000  0.17678
E11   E   0.17678  0.50000  0.82322
E12   E   0.17678  0.82322  0.50000
E13   E   0.25000  0.00000  0.50000
E14   E   0.25000  0.50000  0.00000
E15   E   0.32322  0.00000  0.32322
E16   E   0.32322  0.00000  0.67678
E17   E   0.32322  0.32322  0.00000
E18   E   0.32322  0.67678  0.00000
E19   E   0.50000  0.00000  0.25000
E20   E   0.50000  0.00000  0.75000
E21   E   0.50000  0.17678  0.17678
E22   E   0.50000  0.17678  0.82322
E23   E   0.50000  0.25000  0.00000
E24   E   0.50000  0.75000  0.00000
E25   E   0.50000  0.82322  0.17678
E26   E   0.50000  0.82322  0.82322
E27   E   0.67678  0.00000  0.32322
E28   E   0.67678  0.00000  0.67678
E29   E   0.67678  0.32322  0.00000
E30   E   0.67678  0.67678  0.00000
E31   E   0.75000  0.00000  0.50000
E32   E   0.75000  0.50000  0.00000
E33   E   0.82322  0.17678  0.50000
E34   E   0.82322  0.50000  0.17678
E35   E   0.82322  0.50000  0.82322
E36   E   0.82322  0.82322  0.50000
loop_
