data_utm_I41/acd:2  hall_number: 429, V_con: 3
_audit_creation_date              2025-03-05
_audit_creation_method            'MOFbuilder_1.0'
_symmetry_space_group_name_H-M    'P1'
_symmetry_Int_Tables_number       1
_symmetry_cell_setting            triclinic
loop_
_symmetry_equiv_pos_as_xyz
  x,y,z
_cell_length_a                    49.6951
_cell_length_b                    49.6951
_cell_length_c                    30.4921
_cell_angle_alpha                 90.0
_cell_angle_beta                  90.0
_cell_angle_gamma                 90.0
loop_
_atom_site_label
_atom_site_type_symbol
_atom_site_fract_x
_atom_site_fract_y
_atom_site_fract_z
V1    V   0.06660  0.04259  0.60144
V2    V   0.06660  0.45741  0.10144
V3    V   0.06660  0.54259  0.39856
V4    V   0.06660  0.95741  0.89856
V5    V   0.20741  0.18340  0.64856
V6    V   0.20741  0.31660  0.14856
V7    V   0.20741  0.68340  0.35144
V8    V   0.20741  0.81660  0.85144
V9    V   0.29259  0.18340  0.35144
V10   V   0.29259  0.31660  0.85144
V11   V   0.29259  0.68340  0.64856
V12   V   0.29259  0.81660  0.14856
V13   V   0.43340  0.04259  0.39856
V14   V   0.43340  0.45741  0.89856
V15   V   0.43340  0.54259  0.60144
V16   V   0.43340  0.95741  0.10144
V17   V   0.56660  0.04259  0.89856
V18   V   0.56660  0.45741  0.39856
V19   V   0.56660  0.54259  0.10144
V20   V   0.56660  0.95741  0.60144
V21   V   0.70741  0.18340  0.85144
V22   V   0.70741  0.31660  0.35144
V23   V   0.70741  0.68340  0.14856
V24   V   0.70741  0.81660  0.64856
V25   V   0.79259  0.18340  0.14856
V26   V   0.79259  0.31660  0.64856
V27   V   0.79259  0.68340  0.85144
V28   V   0.79259  0.81660  0.35144
V29   V   0.93340  0.04259  0.10144
V30   V   0.93340  0.45741  0.60144
V31   V   0.93340  0.54259  0.89856
V32   V   0.93340  0.95741  0.39856
E1    E   0.00000  0.00000  0.00000
E2    E   0.00000  0.00000  0.50000
E3    E   0.00000  0.50000  0.00000
E4    E   0.00000  0.50000  0.50000
E5    E   0.06660  0.00000  0.75000
E6    E   0.06660  0.50000  0.25000
E7    E   0.13700  0.11300  0.62500
E8    E   0.13700  0.38700  0.12500
E9    E   0.13700  0.61300  0.37500
E10   E   0.13700  0.88700  0.87500
E11   E   0.25000  0.18340  0.50000
E12   E   0.25000  0.25000  0.25000
E13   E   0.25000  0.25000  0.75000
E14   E   0.25000  0.31660  0.00000
E15   E   0.25000  0.68340  0.50000
E16   E   0.25000  0.75000  0.25000
E17   E   0.25000  0.75000  0.75000
E18   E   0.25000  0.81660  0.00000
E19   E   0.36300  0.11300  0.37500
E20   E   0.36300  0.38700  0.87500
E21   E   0.36300  0.61300  0.62500
E22   E   0.36300  0.88700  0.12500
E23   E   0.43340  0.00000  0.25000
E24   E   0.43340  0.50000  0.75000
E25   E   0.50000  0.00000  0.00000
E26   E   0.50000  0.00000  0.50000
E27   E   0.50000  0.50000  0.00000
E28   E   0.50000  0.50000  0.50000
E29   E   0.56660  0.00000  0.75000
E30   E   0.56660  0.50000  0.25000
E31   E   0.63700  0.11300  0.87500
E32   E   0.63700  0.38700  0.37500
E33   E   0.63700  0.61300  0.12500
E34   E   0.63700  0.88700  0.62500
E35   E   0.75000  0.18340  0.00000
E36   E   0.75000  0.25000  0.25000
E37   E   0.75000  0.25000  0.75000
E38   E   0.75000  0.31660  0.50000
E39   E   0.75000  0.68340  0.00000
E40   E   0.75000  0.75000  0.25000
E41   E   0.75000  0.75000  0.75000
E42   E   0.75000  0.81660  0.50000
E43   E   0.86300  0.11300  0.12500
E44   E   0.86300  0.38700  0.62500
E45   E   0.86300  0.61300  0.87500
E46   E   0.86300  0.88700  0.37500
E47   E   0.93340  0.00000  0.25000
E48   E   0.93340  0.50000  0.75000
loop_
