data_utq_Fddd:2  hall_number: 336, V_con: 3
_audit_creation_date              2025-03-05
_audit_creation_method            'MOFbuilder_1.0'
_symmetry_space_group_name_H-M    'P1'
_symmetry_Int_Tables_number       1
_symmetry_cell_setting            triclinic
loop_
_symmetry_equiv_pos_as_xyz
  x,y,z
_cell_length_a                    52.3531
_cell_length_b                    17.3231
_cell_length_c                    60.9812
_cell_angle_alpha                 90.0
_cell_angle_beta                  90.0
_cell_angle_gamma                 90.0
loop_
_atom_site_label
_atom_site_type_symbol
_atom_site_fract_x
_atom_site_fract_y
_atom_site_fract_z
V1    V   0.05893  0.33342  0.95614
V2    V   0.05893  0.41658  0.79386
V3    V   0.05893  0.83342  0.45614
V4    V   0.05893  0.91658  0.29386
V5    V   0.19107  0.33342  0.29386
V6    V   0.19107  0.41658  0.45614
V7    V   0.19107  0.83342  0.79386
V8    V   0.19107  0.91658  0.95614
V9    V   0.30893  0.08342  0.54386
V10   V   0.30893  0.16658  0.70614
V11   V   0.30893  0.58342  0.04386
V12   V   0.30893  0.66658  0.20614
V13   V   0.44107  0.08342  0.20614
V14   V   0.44107  0.16658  0.04386
V15   V   0.44107  0.58342  0.70614
V16   V   0.44107  0.66658  0.54386
V17   V   0.55893  0.33342  0.45614
V18   V   0.55893  0.41658  0.29386
V19   V   0.55893  0.83342  0.95614
V20   V   0.55893  0.91658  0.79386
V21   V   0.69107  0.33342  0.79386
V22   V   0.69107  0.41658  0.95614
V23   V   0.69107  0.83342  0.29386
V24   V   0.69107  0.91658  0.45614
V25   V   0.80893  0.08342  0.04386
V26   V   0.80893  0.16658  0.20614
V27   V   0.80893  0.58342  0.54386
V28   V   0.80893  0.66658  0.70614
V29   V   0.94107  0.08342  0.70614
V30   V   0.94107  0.16658  0.54386
V31   V   0.94107  0.58342  0.20614
V32   V   0.94107  0.66658  0.04386
E1    E   0.00000  0.00000  0.50000
E2    E   0.00000  0.25000  0.75000
E3    E   0.00000  0.50000  0.00000
E4    E   0.00000  0.75000  0.25000
E5    E   0.05893  0.37500  0.87500
E6    E   0.05893  0.87500  0.37500
E7    E   0.12500  0.12500  0.29386
E8    E   0.12500  0.12500  0.95614
E9    E   0.12500  0.62500  0.45614
E10   E   0.12500  0.62500  0.79386
E11   E   0.19107  0.37500  0.37500
E12   E   0.19107  0.87500  0.87500
E13   E   0.25000  0.00000  0.75000
E14   E   0.25000  0.25000  0.50000
E15   E   0.25000  0.50000  0.25000
E16   E   0.25000  0.75000  0.00000
E17   E   0.30893  0.12500  0.62500
E18   E   0.30893  0.62500  0.12500
E19   E   0.37500  0.37500  0.04386
E20   E   0.37500  0.37500  0.70614
E21   E   0.37500  0.87500  0.20614
E22   E   0.37500  0.87500  0.54386
E23   E   0.44107  0.12500  0.12500
E24   E   0.44107  0.62500  0.62500
E25   E   0.50000  0.00000  0.00000
E26   E   0.50000  0.25000  0.25000
E27   E   0.50000  0.50000  0.50000
E28   E   0.50000  0.75000  0.75000
E29   E   0.55893  0.37500  0.37500
E30   E   0.55893  0.87500  0.87500
E31   E   0.62500  0.12500  0.45614
E32   E   0.62500  0.12500  0.79386
E33   E   0.62500  0.62500  0.29386
E34   E   0.62500  0.62500  0.95614
E35   E   0.69107  0.37500  0.87500
E36   E   0.69107  0.87500  0.37500
E37   E   0.75000  0.00000  0.25000
E38   E   0.75000  0.25000  0.00000
E39   E   0.75000  0.50000  0.75000
E40   E   0.75000  0.75000  0.50000
E41   E   0.80893  0.12500  0.12500
E42   E   0.80893  0.62500  0.62500
E43   E   0.87500  0.37500  0.20614
E44   E   0.87500  0.37500  0.54386
E45   E   0.87500  0.87500  0.04386
E46   E   0.87500  0.87500  0.70614
E47   E   0.94107  0.12500  0.62500
E48   E   0.94107  0.62500  0.12500
loop_
