data_vbs_Ccca:2  hall_number: 325, V_con: 6
_audit_creation_date              2025-03-05
_audit_creation_method            'MOFbuilder_1.0'
_symmetry_space_group_name_H-M    'P1'
_symmetry_Int_Tables_number       1
_symmetry_cell_setting            triclinic
loop_
_symmetry_equiv_pos_as_xyz
  x,y,z
_cell_length_a                    35.5225
_cell_length_b                    24.1207
_cell_length_c                    18.6431
_cell_angle_alpha                 90.0
_cell_angle_beta                  90.0
_cell_angle_gamma                 90.0
loop_
_atom_site_label
_atom_site_type_symbol
_atom_site_fract_x
_atom_site_fract_y
_atom_site_fract_z
V1    V   0.11879  0.07505  0.10614
V2    V   0.11879  0.42495  0.60614
V3    V   0.11879  0.57505  0.89386
V4    V   0.11879  0.92495  0.39386
V5    V   0.38121  0.07505  0.39386
V6    V   0.38121  0.42495  0.89386
V7    V   0.38121  0.57505  0.60614
V8    V   0.38121  0.92495  0.10614
V9    V   0.61879  0.07505  0.89386
V10   V   0.61879  0.42495  0.39386
V11   V   0.61879  0.57505  0.10614
V12   V   0.61879  0.92495  0.60614
V13   V   0.88121  0.07505  0.60614
V14   V   0.88121  0.42495  0.10614
V15   V   0.88121  0.57505  0.39386
V16   V   0.88121  0.92495  0.89386
E1    E   0.00000  0.00000  0.00000
E2    E   0.00000  0.00000  0.50000
E3    E   0.00000  0.07505  0.25000
E4    E   0.00000  0.07505  0.75000
E5    E   0.00000  0.42495  0.25000
E6    E   0.00000  0.42495  0.75000
E7    E   0.00000  0.50000  0.00000
E8    E   0.00000  0.50000  0.50000
E9    E   0.00000  0.57505  0.25000
E10   E   0.00000  0.57505  0.75000
E11   E   0.00000  0.92495  0.25000
E12   E   0.00000  0.92495  0.75000
E13   E   0.11879  0.00000  0.14386
E14   E   0.11879  0.00000  0.35614
E15   E   0.11879  0.25000  0.25000
E16   E   0.11879  0.25000  0.75000
E17   E   0.11879  0.50000  0.64386
E18   E   0.11879  0.50000  0.85614
E19   E   0.11879  0.75000  0.25000
E20   E   0.11879  0.75000  0.75000
E21   E   0.25000  0.00000  0.10614
E22   E   0.25000  0.00000  0.39386
E23   E   0.25000  0.50000  0.60614
E24   E   0.25000  0.50000  0.89386
E25   E   0.38121  0.00000  0.14386
E26   E   0.38121  0.00000  0.35614
E27   E   0.38121  0.25000  0.25000
E28   E   0.38121  0.25000  0.75000
E29   E   0.38121  0.50000  0.64386
E30   E   0.38121  0.50000  0.85614
E31   E   0.38121  0.75000  0.25000
E32   E   0.38121  0.75000  0.75000
E33   E   0.50000  0.00000  0.00000
E34   E   0.50000  0.00000  0.50000
E35   E   0.50000  0.07505  0.25000
E36   E   0.50000  0.07505  0.75000
E37   E   0.50000  0.42495  0.25000
E38   E   0.50000  0.42495  0.75000
E39   E   0.50000  0.50000  0.00000
E40   E   0.50000  0.50000  0.50000
E41   E   0.50000  0.57505  0.25000
E42   E   0.50000  0.57505  0.75000
E43   E   0.50000  0.92495  0.25000
E44   E   0.50000  0.92495  0.75000
E45   E   0.61879  0.00000  0.64386
E46   E   0.61879  0.00000  0.85614
E47   E   0.61879  0.25000  0.25000
E48   E   0.61879  0.25000  0.75000
E49   E   0.61879  0.50000  0.14386
E50   E   0.61879  0.50000  0.35614
E51   E   0.61879  0.75000  0.25000
E52   E   0.61879  0.75000  0.75000
E53   E   0.75000  0.00000  0.60614
E54   E   0.75000  0.00000  0.89386
E55   E   0.75000  0.50000  0.10614
E56   E   0.75000  0.50000  0.39386
E57   E   0.88121  0.00000  0.64386
E58   E   0.88121  0.00000  0.85614
E59   E   0.88121  0.25000  0.25000
E60   E   0.88121  0.25000  0.75000
E61   E   0.88121  0.50000  0.14386
E62   E   0.88121  0.50000  0.35614
E63   E   0.88121  0.75000  0.25000
E64   E   0.88121  0.75000  0.75000
loop_
