data_vbv_Ccca:2  hall_number: 325, V_con: 6
_audit_creation_date              2025-03-05
_audit_creation_method            'MOFbuilder_1.0'
_symmetry_space_group_name_H-M    'P1'
_symmetry_Int_Tables_number       1
_symmetry_cell_setting            triclinic
loop_
_symmetry_equiv_pos_as_xyz
  x,y,z
_cell_length_a                    35.449
_cell_length_b                    16.6765
_cell_length_c                    30.4848
_cell_angle_alpha                 90.0
_cell_angle_beta                  90.0
_cell_angle_gamma                 90.0
loop_
_atom_site_label
_atom_site_type_symbol
_atom_site_fract_x
_atom_site_fract_y
_atom_site_fract_z
V1    V   0.13713  0.17979  0.59054
V2    V   0.13713  0.32021  0.09054
V3    V   0.13713  0.67979  0.40946
V4    V   0.13713  0.82021  0.90946
V5    V   0.36287  0.17979  0.90946
V6    V   0.36287  0.32021  0.40946
V7    V   0.36287  0.67979  0.09054
V8    V   0.36287  0.82021  0.59054
V9    V   0.63713  0.17979  0.40946
V10   V   0.63713  0.32021  0.90946
V11   V   0.63713  0.67979  0.59054
V12   V   0.63713  0.82021  0.09054
V13   V   0.86287  0.17979  0.09054
V14   V   0.86287  0.32021  0.59054
V15   V   0.86287  0.67979  0.90946
V16   V   0.86287  0.82021  0.40946
E1    E   0.00000  0.25000  0.09054
E2    E   0.00000  0.25000  0.59054
E3    E   0.00000  0.75000  0.40946
E4    E   0.00000  0.75000  0.90946
E5    E   0.13713  0.07021  0.00000
E6    E   0.13713  0.25000  0.25000
E7    E   0.13713  0.25000  0.75000
E8    E   0.13713  0.42979  0.50000
E9    E   0.13713  0.57021  0.00000
E10   E   0.13713  0.75000  0.25000
E11   E   0.13713  0.75000  0.75000
E12   E   0.13713  0.92979  0.50000
E13   E   0.25000  0.00000  0.59054
E14   E   0.25000  0.00000  0.90946
E15   E   0.25000  0.25000  0.00000
E16   E   0.25000  0.25000  0.50000
E17   E   0.25000  0.50000  0.09054
E18   E   0.25000  0.50000  0.40946
E19   E   0.25000  0.75000  0.00000
E20   E   0.25000  0.75000  0.50000
E21   E   0.36287  0.07021  0.50000
E22   E   0.36287  0.25000  0.25000
E23   E   0.36287  0.25000  0.75000
E24   E   0.36287  0.42979  0.00000
E25   E   0.36287  0.57021  0.50000
E26   E   0.36287  0.75000  0.25000
E27   E   0.36287  0.75000  0.75000
E28   E   0.36287  0.92979  0.00000
E29   E   0.50000  0.25000  0.40946
E30   E   0.50000  0.25000  0.90946
E31   E   0.50000  0.75000  0.09054
E32   E   0.50000  0.75000  0.59054
E33   E   0.63713  0.07021  0.00000
E34   E   0.63713  0.25000  0.25000
E35   E   0.63713  0.25000  0.75000
E36   E   0.63713  0.42979  0.50000
E37   E   0.63713  0.57021  0.00000
E38   E   0.63713  0.75000  0.25000
E39   E   0.63713  0.75000  0.75000
E40   E   0.63713  0.92979  0.50000
E41   E   0.75000  0.00000  0.09054
E42   E   0.75000  0.00000  0.40946
E43   E   0.75000  0.25000  0.00000
E44   E   0.75000  0.25000  0.50000
E45   E   0.75000  0.50000  0.59054
E46   E   0.75000  0.50000  0.90946
E47   E   0.75000  0.75000  0.00000
E48   E   0.75000  0.75000  0.50000
E49   E   0.86287  0.07021  0.50000
E50   E   0.86287  0.25000  0.25000
E51   E   0.86287  0.25000  0.75000
E52   E   0.86287  0.42979  0.00000
E53   E   0.86287  0.57021  0.50000
E54   E   0.86287  0.75000  0.25000
E55   E   0.86287  0.75000  0.75000
E56   E   0.86287  0.92979  0.00000
loop_
