data_vbx_Cmcm  hall_number: 298, V_con: 6
_audit_creation_date              2025-03-05
_audit_creation_method            'MOFbuilder_1.0'
_symmetry_space_group_name_H-M    'P1'
_symmetry_Int_Tables_number       1
_symmetry_cell_setting            triclinic
loop_
_symmetry_equiv_pos_as_xyz
  x,y,z
_cell_length_a                    29.0864
_cell_length_b                    17.8168
_cell_length_c                    36.5526
_cell_angle_alpha                 90.0
_cell_angle_beta                  90.0
_cell_angle_gamma                 90.0
loop_
_atom_site_label
_atom_site_type_symbol
_atom_site_fract_x
_atom_site_fract_y
_atom_site_fract_z
V1    V   0.17190  0.15751  0.61321
V2    V   0.17190  0.15751  0.88679
V3    V   0.17190  0.84249  0.11321
V4    V   0.17190  0.84249  0.38679
V5    V   0.32810  0.34249  0.11321
V6    V   0.32810  0.34249  0.38679
V7    V   0.32810  0.65751  0.61321
V8    V   0.32810  0.65751  0.88679
V9    V   0.67190  0.34249  0.11321
V10   V   0.67190  0.34249  0.38679
V11   V   0.67190  0.65751  0.61321
V12   V   0.67190  0.65751  0.88679
V13   V   0.82810  0.15751  0.61321
V14   V   0.82810  0.15751  0.88679
V15   V   0.82810  0.84249  0.11321
V16   V   0.82810  0.84249  0.38679
E1    E   0.00000  0.15751  0.61321
E2    E   0.00000  0.15751  0.88679
E3    E   0.00000  0.84249  0.11321
E4    E   0.00000  0.84249  0.38679
E5    E   0.17190  0.00000  0.00000
E6    E   0.17190  0.00000  0.50000
E7    E   0.17190  0.15751  0.75000
E8    E   0.17190  0.84249  0.25000
E9    E   0.25000  0.09249  0.11321
E10   E   0.25000  0.09249  0.38679
E11   E   0.25000  0.25000  0.00000
E12   E   0.25000  0.25000  0.50000
E13   E   0.25000  0.40751  0.61321
E14   E   0.25000  0.40751  0.88679
E15   E   0.25000  0.59249  0.11321
E16   E   0.25000  0.59249  0.38679
E17   E   0.25000  0.75000  0.00000
E18   E   0.25000  0.75000  0.50000
E19   E   0.25000  0.90751  0.61321
E20   E   0.25000  0.90751  0.88679
E21   E   0.32810  0.34249  0.25000
E22   E   0.32810  0.50000  0.00000
E23   E   0.32810  0.50000  0.50000
E24   E   0.32810  0.65751  0.75000
E25   E   0.50000  0.34249  0.11321
E26   E   0.50000  0.34249  0.38679
E27   E   0.50000  0.65751  0.61321
E28   E   0.50000  0.65751  0.88679
E29   E   0.67190  0.34249  0.25000
E30   E   0.67190  0.50000  0.00000
E31   E   0.67190  0.50000  0.50000
E32   E   0.67190  0.65751  0.75000
E33   E   0.75000  0.09249  0.11321
E34   E   0.75000  0.09249  0.38679
E35   E   0.75000  0.25000  0.00000
E36   E   0.75000  0.25000  0.50000
E37   E   0.75000  0.40751  0.61321
E38   E   0.75000  0.40751  0.88679
E39   E   0.75000  0.59249  0.11321
E40   E   0.75000  0.59249  0.38679
E41   E   0.75000  0.75000  0.00000
E42   E   0.75000  0.75000  0.50000
E43   E   0.75000  0.90751  0.61321
E44   E   0.75000  0.90751  0.88679
E45   E   0.82810  0.00000  0.00000
E46   E   0.82810  0.00000  0.50000
E47   E   0.82810  0.15751  0.75000
E48   E   0.82810  0.84249  0.25000
loop_
