data_vca_Ibam  hall_number: 338, V_con: 6
_audit_creation_date              2025-03-05
_audit_creation_method            'MOFbuilder_1.0'
_symmetry_space_group_name_H-M    'P1'
_symmetry_Int_Tables_number       1
_symmetry_cell_setting            triclinic
loop_
_symmetry_equiv_pos_as_xyz
  x,y,z
_cell_length_a                    18.0291
_cell_length_b                    25.299
_cell_length_c                    36.6416
_cell_angle_alpha                 90.0
_cell_angle_beta                  90.0
_cell_angle_gamma                 90.0
loop_
_atom_site_label
_atom_site_type_symbol
_atom_site_fract_x
_atom_site_fract_y
_atom_site_fract_z
V1    V   0.15382  0.33555  0.36354
V2    V   0.15382  0.33555  0.63646
V3    V   0.15382  0.66445  0.13646
V4    V   0.15382  0.66445  0.86354
V5    V   0.34618  0.16445  0.13646
V6    V   0.34618  0.16445  0.86354
V7    V   0.34618  0.83555  0.36354
V8    V   0.34618  0.83555  0.63646
V9    V   0.65382  0.16445  0.36354
V10   V   0.65382  0.16445  0.63646
V11   V   0.65382  0.83555  0.13646
V12   V   0.65382  0.83555  0.86354
V13   V   0.84618  0.33555  0.13646
V14   V   0.84618  0.33555  0.86354
V15   V   0.84618  0.66445  0.36354
V16   V   0.84618  0.66445  0.63646
E1    E   0.00000  0.33555  0.25000
E2    E   0.00000  0.33555  0.75000
E3    E   0.00000  0.50000  0.13646
E4    E   0.00000  0.50000  0.36354
E5    E   0.00000  0.50000  0.63646
E6    E   0.00000  0.50000  0.86354
E7    E   0.00000  0.66445  0.25000
E8    E   0.00000  0.66445  0.75000
E9    E   0.09618  0.25000  0.13646
E10   E   0.09618  0.25000  0.86354
E11   E   0.09618  0.75000  0.36354
E12   E   0.09618  0.75000  0.63646
E13   E   0.15382  0.33555  0.50000
E14   E   0.15382  0.66445  0.00000
E15   E   0.25000  0.25000  0.25000
E16   E   0.25000  0.25000  0.75000
E17   E   0.25000  0.75000  0.25000
E18   E   0.25000  0.75000  0.75000
E19   E   0.34618  0.16445  0.00000
E20   E   0.34618  0.83555  0.50000
E21   E   0.40382  0.25000  0.36354
E22   E   0.40382  0.25000  0.63646
E23   E   0.40382  0.75000  0.13646
E24   E   0.40382  0.75000  0.86354
E25   E   0.50000  0.00000  0.13646
E26   E   0.50000  0.00000  0.36354
E27   E   0.50000  0.00000  0.63646
E28   E   0.50000  0.00000  0.86354
E29   E   0.50000  0.16445  0.25000
E30   E   0.50000  0.16445  0.75000
E31   E   0.50000  0.83555  0.25000
E32   E   0.50000  0.83555  0.75000
E33   E   0.59618  0.25000  0.13646
E34   E   0.59618  0.25000  0.86354
E35   E   0.59618  0.75000  0.36354
E36   E   0.59618  0.75000  0.63646
E37   E   0.65382  0.16445  0.50000
E38   E   0.65382  0.83555  0.00000
E39   E   0.75000  0.25000  0.25000
E40   E   0.75000  0.25000  0.75000
E41   E   0.75000  0.75000  0.25000
E42   E   0.75000  0.75000  0.75000
E43   E   0.84618  0.33555  0.00000
E44   E   0.84618  0.66445  0.50000
E45   E   0.90382  0.25000  0.36354
E46   E   0.90382  0.25000  0.63646
E47   E   0.90382  0.75000  0.13646
E48   E   0.90382  0.75000  0.86354
loop_
