data_wbl_I4122  hall_number: 375, V_con: 4, EC_con: 4
_audit_creation_date              2025-03-05
_audit_creation_method            'MOFbuilder_1.0'
_symmetry_space_group_name_H-M    'P1'
_symmetry_Int_Tables_number       1
_symmetry_cell_setting            triclinic
loop_
_symmetry_equiv_pos_as_xyz
  x,y,z
_cell_length_a                    24.4928
_cell_length_b                    24.4928
_cell_length_c                    48.9982
_cell_angle_alpha                 90.0
_cell_angle_beta                  90.0
_cell_angle_gamma                 90.0
loop_
_atom_site_label
_atom_site_type_symbol
_atom_site_fract_x
_atom_site_fract_y
_atom_site_fract_z
V1    V   0.00000  0.00000  0.33318
V2    V   0.00000  0.00000  0.66682
V3    V   0.00000  0.50000  0.58318
V4    V   0.00000  0.50000  0.91682
V5    V   0.50000  0.00000  0.08318
V6    V   0.50000  0.00000  0.41682
V7    V   0.50000  0.50000  0.16682
V8    V   0.50000  0.50000  0.83318
EC1    EC   0.16632  0.66632  0.75000
EC2    EC   0.16632  0.83368  0.50000
EC3    EC   0.33368  0.66632  0.00000
EC4    EC   0.33368  0.83368  0.25000
EC5    EC   0.66632  0.16632  0.25000
EC6    EC   0.66632  0.33368  0.00000
EC7    EC   0.83368  0.16632  0.50000
EC8    EC   0.83368  0.33368  0.75000
E1    E   0.08316  0.58316  0.66659
E2    E   0.08316  0.58316  0.83341
E3    E   0.08316  0.66684  0.54159
E4    E   0.08316  0.83316  0.70841
E5    E   0.08316  0.91684  0.41659
E6    E   0.08316  0.91684  0.58341
E7    E   0.16684  0.58316  0.95841
E8    E   0.16684  0.91684  0.29159
E9    E   0.33316  0.58316  0.79159
E10   E   0.33316  0.91684  0.45841
E11   E   0.41684  0.58316  0.08341
E12   E   0.41684  0.58316  0.91659
E13   E   0.41684  0.66684  0.20841
E14   E   0.41684  0.83316  0.04159
E15   E   0.41684  0.91684  0.16659
E16   E   0.41684  0.91684  0.33341
E17   E   0.58316  0.08316  0.16659
E18   E   0.58316  0.08316  0.33341
E19   E   0.58316  0.16684  0.04159
E20   E   0.58316  0.33316  0.20841
E21   E   0.58316  0.41684  0.08341
E22   E   0.58316  0.41684  0.91659
E23   E   0.66684  0.08316  0.45841
E24   E   0.66684  0.41684  0.79159
E25   E   0.83316  0.08316  0.29159
E26   E   0.83316  0.41684  0.95841
E27   E   0.91684  0.08316  0.41659
E28   E   0.91684  0.08316  0.58341
E29   E   0.91684  0.16684  0.70841
E30   E   0.91684  0.33316  0.54159
E31   E   0.91684  0.41684  0.66659
E32   E   0.91684  0.41684  0.83341
loop_
