data_wei_Cccm  hall_number: 313, V_con: 4, EC_con: 4
_audit_creation_date              2025-03-05
_audit_creation_method            'MOFbuilder_1.0'
_symmetry_space_group_name_H-M    'P1'
_symmetry_Int_Tables_number       1
_symmetry_cell_setting            triclinic
loop_
_symmetry_equiv_pos_as_xyz
  x,y,z
_cell_length_a                    31.3699
_cell_length_b                    45.6231
_cell_length_c                    33.6102
_cell_angle_alpha                 90.0
_cell_angle_beta                  90.0
_cell_angle_gamma                 90.0
loop_
_atom_site_label
_atom_site_type_symbol
_atom_site_fract_x
_atom_site_fract_y
_atom_site_fract_z
V1    V   0.11679  0.18982  0.14876
V2    V   0.11679  0.18982  0.85124
V3    V   0.11679  0.81018  0.35124
V4    V   0.11679  0.81018  0.64876
V5    V   0.38321  0.31018  0.14876
V6    V   0.38321  0.31018  0.85124
V7    V   0.38321  0.68982  0.35124
V8    V   0.38321  0.68982  0.64876
V9    V   0.61679  0.31018  0.35124
V10   V   0.61679  0.31018  0.64876
V11   V   0.61679  0.68982  0.14876
V12   V   0.61679  0.68982  0.85124
V13   V   0.88321  0.18982  0.35124
V14   V   0.88321  0.18982  0.64876
V15   V   0.88321  0.81018  0.14876
V16   V   0.88321  0.81018  0.85124
EC1    EC   0.00000  0.00000  0.25000
EC2    EC   0.00000  0.00000  0.75000
EC3    EC   0.50000  0.50000  0.25000
EC4    EC   0.50000  0.50000  0.75000
E1    E   0.00000  0.18982  0.25000
E2    E   0.00000  0.18982  0.75000
E3    E   0.00000  0.81018  0.25000
E4    E   0.00000  0.81018  0.75000
E5    E   0.05839  0.09491  0.19938
E6    E   0.05839  0.09491  0.80062
E7    E   0.05839  0.90509  0.30062
E8    E   0.05839  0.90509  0.69938
E9    E   0.11679  0.18982  0.00000
E10   E   0.11679  0.81018  0.50000
E11   E   0.25000  0.25000  0.14876
E12   E   0.25000  0.25000  0.85124
E13   E   0.25000  0.75000  0.35124
E14   E   0.25000  0.75000  0.64876
E15   E   0.38321  0.31018  0.00000
E16   E   0.38321  0.68982  0.50000
E17   E   0.44161  0.40509  0.19938
E18   E   0.44161  0.40509  0.80062
E19   E   0.44161  0.59491  0.30062
E20   E   0.44161  0.59491  0.69938
E21   E   0.50000  0.31018  0.25000
E22   E   0.50000  0.31018  0.75000
E23   E   0.50000  0.68982  0.25000
E24   E   0.50000  0.68982  0.75000
E25   E   0.55839  0.40509  0.30062
E26   E   0.55839  0.40509  0.69938
E27   E   0.55839  0.59491  0.19938
E28   E   0.55839  0.59491  0.80062
E29   E   0.61679  0.31018  0.50000
E30   E   0.61679  0.68982  0.00000
E31   E   0.75000  0.25000  0.35124
E32   E   0.75000  0.25000  0.64876
E33   E   0.75000  0.75000  0.14876
E34   E   0.75000  0.75000  0.85124
E35   E   0.88321  0.18982  0.50000
E36   E   0.88321  0.81018  0.00000
E37   E   0.94161  0.09491  0.30062
E38   E   0.94161  0.09491  0.69938
E39   E   0.94161  0.90509  0.19938
E40   E   0.94161  0.90509  0.80062
loop_
