data_wfq_I41/amd:2  hall_number: 427, V_con: 7
_audit_creation_date              2025-03-05
_audit_creation_method            'MOFbuilder_1.0'
_symmetry_space_group_name_H-M    'P1'
_symmetry_Int_Tables_number       1
_symmetry_cell_setting            triclinic
loop_
_symmetry_equiv_pos_as_xyz
  x,y,z
_cell_length_a                    23.7008
_cell_length_b                    23.7008
_cell_length_c                    21.6893
_cell_angle_alpha                 90.0
_cell_angle_beta                  90.0
_cell_angle_gamma                 90.0
loop_
_atom_site_label
_atom_site_type_symbol
_atom_site_fract_x
_atom_site_fract_y
_atom_site_fract_z
V1    V   0.00000  0.01843  0.22965
V2    V   0.00000  0.48157  0.22965
V3    V   0.00000  0.51843  0.77035
V4    V   0.00000  0.98157  0.77035
V5    V   0.23157  0.25000  0.52035
V6    V   0.23157  0.75000  0.47965
V7    V   0.26843  0.25000  0.97965
V8    V   0.26843  0.75000  0.02035
V9    V   0.50000  0.01843  0.27035
V10   V   0.50000  0.48157  0.27035
V11   V   0.50000  0.51843  0.72965
V12   V   0.50000  0.98157  0.72965
V13   V   0.73157  0.25000  0.97965
V14   V   0.73157  0.75000  0.02035
V15   V   0.76843  0.25000  0.52035
V16   V   0.76843  0.75000  0.47965
E1    E   0.00000  0.00000  0.00000
E2    E   0.00000  0.50000  0.00000
E3    E   0.11579  0.11579  0.64535
E4    E   0.11579  0.13421  0.37500
E5    E   0.11579  0.36579  0.37500
E6    E   0.11579  0.38421  0.64535
E7    E   0.11579  0.61579  0.35465
E8    E   0.11579  0.63421  0.62500
E9    E   0.11579  0.86579  0.62500
E10   E   0.11579  0.88421  0.35465
E11   E   0.13421  0.13421  0.10465
E12   E   0.13421  0.36579  0.10465
E13   E   0.13421  0.63421  0.89535
E14   E   0.13421  0.86579  0.89535
E15   E   0.25000  0.25000  0.75000
E16   E   0.25000  0.75000  0.25000
E17   E   0.36579  0.13421  0.39535
E18   E   0.36579  0.36579  0.39535
E19   E   0.36579  0.63421  0.60465
E20   E   0.36579  0.86579  0.60465
E21   E   0.38421  0.11579  0.85465
E22   E   0.38421  0.13421  0.12500
E23   E   0.38421  0.36579  0.12500
E24   E   0.38421  0.38421  0.85465
E25   E   0.38421  0.61579  0.14535
E26   E   0.38421  0.63421  0.87500
E27   E   0.38421  0.86579  0.87500
E28   E   0.38421  0.88421  0.14535
E29   E   0.50000  0.00000  0.50000
E30   E   0.50000  0.50000  0.50000
E31   E   0.61579  0.11579  0.85465
E32   E   0.61579  0.13421  0.12500
E33   E   0.61579  0.36579  0.12500
E34   E   0.61579  0.38421  0.85465
E35   E   0.61579  0.61579  0.14535
E36   E   0.61579  0.63421  0.87500
E37   E   0.61579  0.86579  0.87500
E38   E   0.61579  0.88421  0.14535
E39   E   0.63421  0.13421  0.39535
E40   E   0.63421  0.36579  0.39535
E41   E   0.63421  0.63421  0.60465
E42   E   0.63421  0.86579  0.60465
E43   E   0.75000  0.25000  0.75000
E44   E   0.75000  0.75000  0.25000
E45   E   0.86579  0.13421  0.10465
E46   E   0.86579  0.36579  0.10465
E47   E   0.86579  0.63421  0.89535
E48   E   0.86579  0.86579  0.89535
E49   E   0.88421  0.11579  0.64535
E50   E   0.88421  0.13421  0.37500
E51   E   0.88421  0.36579  0.37500
E52   E   0.88421  0.38421  0.64535
E53   E   0.88421  0.61579  0.35465
E54   E   0.88421  0.63421  0.62500
E55   E   0.88421  0.86579  0.62500
E56   E   0.88421  0.88421  0.35465
loop_
