data_wfz_P41212  hall_number: 369, V_con: 7
_audit_creation_date              2025-03-05
_audit_creation_method            'MOFbuilder_1.0'
_symmetry_space_group_name_H-M    'P1'
_symmetry_Int_Tables_number       1
_symmetry_cell_setting            triclinic
loop_
_symmetry_equiv_pos_as_xyz
  x,y,z
_cell_length_a                    13.9351
_cell_length_b                    13.9351
_cell_length_c                    37.5439
_cell_angle_alpha                 90.0
_cell_angle_beta                  90.0
_cell_angle_gamma                 90.0
loop_
_atom_site_label
_atom_site_type_symbol
_atom_site_fract_x
_atom_site_fract_y
_atom_site_fract_z
V1    V   0.00000  0.32492  0.14771
V2    V   0.00000  0.67508  0.64771
V3    V   0.17508  0.50000  0.39771
V4    V   0.32492  0.00000  0.85229
V5    V   0.50000  0.17508  0.60229
V6    V   0.50000  0.82492  0.10229
V7    V   0.67508  0.00000  0.35229
V8    V   0.82492  0.50000  0.89771
E1    E   0.07492  0.25000  0.87500
E2    E   0.07492  0.75000  0.87500
E3    E   0.08754  0.41246  0.27271
E4    E   0.08754  0.58754  0.52271
E5    E   0.16246  0.83754  0.75000
E6    E   0.25000  0.07492  0.12500
E7    E   0.25000  0.42508  0.62500
E8    E   0.25000  0.57492  0.12500
E9    E   0.25000  0.92508  0.62500
E10   E   0.33754  0.33754  0.50000
E11   E   0.41246  0.08754  0.72729
E12   E   0.41246  0.91246  0.97729
E13   E   0.42508  0.25000  0.37500
E14   E   0.42508  0.75000  0.37500
E15   E   0.57492  0.25000  0.87500
E16   E   0.57492  0.75000  0.87500
E17   E   0.58754  0.08754  0.47729
E18   E   0.58754  0.91246  0.22729
E19   E   0.66246  0.66246  0.00000
E20   E   0.75000  0.07492  0.12500
E21   E   0.75000  0.42508  0.62500
E22   E   0.75000  0.57492  0.12500
E23   E   0.75000  0.92508  0.62500
E24   E   0.83754  0.16246  0.25000
E25   E   0.91246  0.41246  0.02271
E26   E   0.91246  0.58754  0.77271
E27   E   0.92508  0.25000  0.37500
E28   E   0.92508  0.75000  0.37500
loop_
