data_wge_I41/amd:2  hall_number: 427, V_con: 5
_audit_creation_date              2025-03-05
_audit_creation_method            'MOFbuilder_1.0'
_symmetry_space_group_name_H-M    'P1'
_symmetry_Int_Tables_number       1
_symmetry_cell_setting            triclinic
loop_
_symmetry_equiv_pos_as_xyz
  x,y,z
_cell_length_a                    42.7469
_cell_length_b                    42.7469
_cell_length_c                    23.0667
_cell_angle_alpha                 90.0
_cell_angle_beta                  90.0
_cell_angle_gamma                 90.0
loop_
_atom_site_label
_atom_site_type_symbol
_atom_site_fract_x
_atom_site_fract_y
_atom_site_fract_z
V1    V   0.11697  0.02379  0.71223
V2    V   0.11697  0.47621  0.71223
V3    V   0.11697  0.52379  0.28777
V4    V   0.11697  0.97621  0.28777
V5    V   0.22621  0.13303  0.03777
V6    V   0.22621  0.36697  0.03777
V7    V   0.22621  0.63303  0.96223
V8    V   0.22621  0.86697  0.96223
V9    V   0.27379  0.13303  0.46223
V10   V   0.27379  0.36697  0.46223
V11   V   0.27379  0.63303  0.53777
V12   V   0.27379  0.86697  0.53777
V13   V   0.38303  0.02379  0.78777
V14   V   0.38303  0.47621  0.78777
V15   V   0.38303  0.52379  0.21223
V16   V   0.38303  0.97621  0.21223
V17   V   0.61697  0.02379  0.78777
V18   V   0.61697  0.47621  0.78777
V19   V   0.61697  0.52379  0.21223
V20   V   0.61697  0.97621  0.21223
V21   V   0.72621  0.13303  0.46223
V22   V   0.72621  0.36697  0.46223
V23   V   0.72621  0.63303  0.53777
V24   V   0.72621  0.86697  0.53777
V25   V   0.77379  0.13303  0.03777
V26   V   0.77379  0.36697  0.03777
V27   V   0.77379  0.63303  0.96223
V28   V   0.77379  0.86697  0.96223
V29   V   0.88303  0.02379  0.71223
V30   V   0.88303  0.47621  0.71223
V31   V   0.88303  0.52379  0.28777
V32   V   0.88303  0.97621  0.28777
E1    E   0.00000  0.02379  0.71223
E2    E   0.00000  0.47621  0.71223
E3    E   0.00000  0.52379  0.28777
E4    E   0.00000  0.97621  0.28777
E5    E   0.11697  0.00000  0.50000
E6    E   0.11697  0.50000  0.50000
E7    E   0.17159  0.05462  0.16277
E8    E   0.17159  0.07841  0.87500
E9    E   0.17159  0.42159  0.87500
E10   E   0.17159  0.44538  0.16277
E11   E   0.17159  0.55462  0.83723
E12   E   0.17159  0.57841  0.12500
E13   E   0.17159  0.92159  0.12500
E14   E   0.17159  0.94538  0.83723
E15   E   0.17159  0.07841  0.87500
E16   E   0.17159  0.42159  0.87500
E17   E   0.17159  0.57841  0.12500
E18   E   0.17159  0.92159  0.12500
E19   E   0.19538  0.07841  0.58723
E20   E   0.19538  0.42159  0.58723
E21   E   0.19538  0.57841  0.41277
E22   E   0.19538  0.92159  0.41277
E23   E   0.22621  0.25000  0.03777
E24   E   0.22621  0.75000  0.96223
E25   E   0.25000  0.13303  0.25000
E26   E   0.25000  0.36697  0.25000
E27   E   0.25000  0.63303  0.75000
E28   E   0.25000  0.86697  0.75000
E29   E   0.27379  0.25000  0.46223
E30   E   0.27379  0.75000  0.53777
E31   E   0.30462  0.07841  0.91277
E32   E   0.30462  0.42159  0.91277
E33   E   0.30462  0.57841  0.08723
E34   E   0.30462  0.92159  0.08723
E35   E   0.32841  0.05462  0.33723
E36   E   0.32841  0.07841  0.62500
E37   E   0.32841  0.07841  0.62500
E38   E   0.32841  0.42159  0.62500
E39   E   0.32841  0.44538  0.33723
E40   E   0.32841  0.55462  0.66277
E41   E   0.32841  0.57841  0.37500
E42   E   0.32841  0.92159  0.37500
E43   E   0.32841  0.94538  0.66277
E44   E   0.38303  0.00000  0.00000
E45   E   0.38303  0.50000  0.00000
E46   E   0.50000  0.02379  0.78777
E47   E   0.50000  0.47621  0.78777
E48   E   0.50000  0.52379  0.21223
E49   E   0.50000  0.97621  0.21223
E50   E   0.61697  0.00000  0.00000
E51   E   0.61697  0.50000  0.00000
E52   E   0.67159  0.05462  0.33723
E53   E   0.67159  0.07841  0.62500
E54   E   0.67159  0.07841  0.62500
E55   E   0.67159  0.42159  0.62500
E56   E   0.67159  0.44538  0.33723
E57   E   0.67159  0.55462  0.66277
E58   E   0.67159  0.57841  0.37500
E59   E   0.67159  0.92159  0.37500
E60   E   0.67159  0.94538  0.66277
E61   E   0.69538  0.07841  0.91277
E62   E   0.69538  0.42159  0.91277
E63   E   0.69538  0.57841  0.08723
E64   E   0.69538  0.92159  0.08723
E65   E   0.72621  0.25000  0.46223
E66   E   0.72621  0.75000  0.53777
E67   E   0.75000  0.13303  0.25000
E68   E   0.75000  0.36697  0.25000
E69   E   0.75000  0.63303  0.75000
E70   E   0.75000  0.86697  0.75000
E71   E   0.77379  0.25000  0.03777
E72   E   0.77379  0.75000  0.96223
E73   E   0.80462  0.07841  0.58723
E74   E   0.80462  0.42159  0.58723
E75   E   0.80462  0.57841  0.41277
E76   E   0.80462  0.92159  0.41277
E77   E   0.82841  0.05462  0.16277
E78   E   0.82841  0.07841  0.87500
E79   E   0.82841  0.07841  0.87500
E80   E   0.82841  0.42159  0.87500
E81   E   0.82841  0.44538  0.16277
E82   E   0.82841  0.55462  0.83723
E83   E   0.82841  0.57841  0.12500
E84   E   0.82841  0.92159  0.12500
E85   E   0.82841  0.94538  0.83723
E86   E   0.88303  0.00000  0.50000
E87   E   0.88303  0.50000  0.50000
loop_
