data_wgl_I41/acd:2  hall_number: 429, V_con: 5
_audit_creation_date              2025-03-05
_audit_creation_method            'MOFbuilder_1.0'
_symmetry_space_group_name_H-M    'P1'
_symmetry_Int_Tables_number       1
_symmetry_cell_setting            triclinic
loop_
_symmetry_equiv_pos_as_xyz
  x,y,z
_cell_length_a                    31.6753
_cell_length_b                    31.6753
_cell_length_c                    37.2294
_cell_angle_alpha                 90.0
_cell_angle_beta                  90.0
_cell_angle_gamma                 90.0
loop_
_atom_site_label
_atom_site_type_symbol
_atom_site_fract_x
_atom_site_fract_y
_atom_site_fract_z
V1    V   0.06303  0.03606  0.88075
V2    V   0.06303  0.46394  0.38075
V3    V   0.06303  0.53606  0.11925
V4    V   0.06303  0.96394  0.61925
V5    V   0.21394  0.18697  0.36925
V6    V   0.21394  0.31303  0.86925
V7    V   0.21394  0.68697  0.63075
V8    V   0.21394  0.81303  0.13075
V9    V   0.28606  0.18697  0.63075
V10   V   0.28606  0.31303  0.13075
V11   V   0.28606  0.68697  0.36925
V12   V   0.28606  0.81303  0.86925
V13   V   0.43697  0.03606  0.11925
V14   V   0.43697  0.46394  0.61925
V15   V   0.43697  0.53606  0.88075
V16   V   0.43697  0.96394  0.38075
V17   V   0.56303  0.03606  0.61925
V18   V   0.56303  0.46394  0.11925
V19   V   0.56303  0.53606  0.38075
V20   V   0.56303  0.96394  0.88075
V21   V   0.71394  0.18697  0.13075
V22   V   0.71394  0.31303  0.63075
V23   V   0.71394  0.68697  0.86925
V24   V   0.71394  0.81303  0.36925
V25   V   0.78606  0.18697  0.86925
V26   V   0.78606  0.31303  0.36925
V27   V   0.78606  0.68697  0.13075
V28   V   0.78606  0.81303  0.63075
V29   V   0.93697  0.03606  0.38075
V30   V   0.93697  0.46394  0.88075
V31   V   0.93697  0.53606  0.61925
V32   V   0.93697  0.96394  0.11925
E1    E   0.00000  0.00000  0.00000
E2    E   0.00000  0.00000  0.50000
E3    E   0.00000  0.50000  0.00000
E4    E   0.00000  0.50000  0.50000
E5    E   0.06303  0.00000  0.75000
E6    E   0.06303  0.50000  0.25000
E7    E   0.07546  0.11152  0.37500
E8    E   0.07546  0.38848  0.87500
E9    E   0.07546  0.61152  0.62500
E10   E   0.07546  0.88848  0.12500
E11   E   0.13848  0.17454  0.87500
E12   E   0.13848  0.32546  0.37500
E13   E   0.13848  0.67454  0.12500
E14   E   0.13848  0.82546  0.62500
E15   E   0.17454  0.07546  0.62500
E16   E   0.17454  0.42454  0.12500
E17   E   0.17454  0.57546  0.37500
E18   E   0.17454  0.92454  0.87500
E19   E   0.17454  0.07546  0.62500
E20   E   0.17454  0.42454  0.12500
E21   E   0.17454  0.57546  0.37500
E22   E   0.17454  0.92454  0.87500
E23   E   0.25000  0.18697  0.50000
E24   E   0.25000  0.25000  0.25000
E25   E   0.25000  0.25000  0.75000
E26   E   0.25000  0.31303  0.00000
E27   E   0.25000  0.68697  0.50000
E28   E   0.25000  0.75000  0.25000
E29   E   0.25000  0.75000  0.75000
E30   E   0.25000  0.81303  0.00000
E31   E   0.32546  0.07546  0.37500
E32   E   0.32546  0.42454  0.87500
E33   E   0.32546  0.57546  0.62500
E34   E   0.32546  0.92454  0.12500
E35   E   0.32546  0.07546  0.37500
E36   E   0.32546  0.42454  0.87500
E37   E   0.32546  0.57546  0.62500
E38   E   0.32546  0.92454  0.12500
E39   E   0.36152  0.17454  0.12500
E40   E   0.36152  0.32546  0.62500
E41   E   0.36152  0.67454  0.87500
E42   E   0.36152  0.82546  0.37500
E43   E   0.42454  0.11152  0.62500
E44   E   0.42454  0.38848  0.12500
E45   E   0.42454  0.61152  0.37500
E46   E   0.42454  0.88848  0.87500
E47   E   0.43697  0.00000  0.25000
E48   E   0.43697  0.50000  0.75000
E49   E   0.50000  0.00000  0.00000
E50   E   0.50000  0.00000  0.50000
E51   E   0.50000  0.50000  0.00000
E52   E   0.50000  0.50000  0.50000
E53   E   0.56303  0.00000  0.75000
E54   E   0.56303  0.50000  0.25000
E55   E   0.57546  0.11152  0.12500
E56   E   0.57546  0.38848  0.62500
E57   E   0.57546  0.61152  0.87500
E58   E   0.57546  0.88848  0.37500
E59   E   0.63848  0.17454  0.62500
E60   E   0.63848  0.32546  0.12500
E61   E   0.63848  0.67454  0.37500
E62   E   0.63848  0.82546  0.87500
E63   E   0.67454  0.07546  0.87500
E64   E   0.67454  0.42454  0.37500
E65   E   0.67454  0.57546  0.12500
E66   E   0.67454  0.92454  0.62500
E67   E   0.67454  0.07546  0.87500
E68   E   0.67454  0.42454  0.37500
E69   E   0.67454  0.57546  0.12500
E70   E   0.67454  0.92454  0.62500
E71   E   0.75000  0.18697  0.00000
E72   E   0.75000  0.25000  0.25000
E73   E   0.75000  0.25000  0.75000
E74   E   0.75000  0.31303  0.50000
E75   E   0.75000  0.68697  0.00000
E76   E   0.75000  0.75000  0.25000
E77   E   0.75000  0.75000  0.75000
E78   E   0.75000  0.81303  0.50000
E79   E   0.82546  0.07546  0.12500
E80   E   0.82546  0.42454  0.62500
E81   E   0.82546  0.57546  0.87500
E82   E   0.82546  0.92454  0.37500
E83   E   0.82546  0.07546  0.12500
E84   E   0.82546  0.42454  0.62500
E85   E   0.82546  0.57546  0.87500
E86   E   0.82546  0.92454  0.37500
E87   E   0.86152  0.17454  0.37500
E88   E   0.86152  0.32546  0.87500
E89   E   0.86152  0.67454  0.62500
E90   E   0.86152  0.82546  0.12500
E91   E   0.92454  0.11152  0.87500
E92   E   0.92454  0.38848  0.37500
E93   E   0.92454  0.61152  0.12500
E94   E   0.92454  0.88848  0.62500
E95   E   0.93697  0.00000  0.25000
E96   E   0.93697  0.50000  0.75000
loop_
