data_wgm_I41/acd:2  hall_number: 429, V_con: 5
_audit_creation_date              2025-03-05
_audit_creation_method            'MOFbuilder_1.0'
_symmetry_space_group_name_H-M    'P1'
_symmetry_Int_Tables_number       1
_symmetry_cell_setting            triclinic
loop_
_symmetry_equiv_pos_as_xyz
  x,y,z
_cell_length_a                    28.5782
_cell_length_b                    28.5782
_cell_length_c                    46.385
_cell_angle_alpha                 90.0
_cell_angle_beta                  90.0
_cell_angle_gamma                 90.0
loop_
_atom_site_label
_atom_site_type_symbol
_atom_site_fract_x
_atom_site_fract_y
_atom_site_fract_z
V1    V   0.11408  0.07390  0.93213
V2    V   0.11408  0.42610  0.43213
V3    V   0.11408  0.57390  0.06787
V4    V   0.11408  0.92610  0.56787
V5    V   0.17610  0.13592  0.31787
V6    V   0.17610  0.36408  0.81787
V7    V   0.17610  0.63592  0.68213
V8    V   0.17610  0.86408  0.18213
V9    V   0.32390  0.13592  0.68213
V10   V   0.32390  0.36408  0.18213
V11   V   0.32390  0.63592  0.31787
V12   V   0.32390  0.86408  0.81787
V13   V   0.38592  0.07390  0.06787
V14   V   0.38592  0.42610  0.56787
V15   V   0.38592  0.57390  0.93213
V16   V   0.38592  0.92610  0.43213
V17   V   0.61408  0.07390  0.56787
V18   V   0.61408  0.42610  0.06787
V19   V   0.61408  0.57390  0.43213
V20   V   0.61408  0.92610  0.93213
V21   V   0.67610  0.13592  0.18213
V22   V   0.67610  0.36408  0.68213
V23   V   0.67610  0.63592  0.81787
V24   V   0.67610  0.86408  0.31787
V25   V   0.82390  0.13592  0.81787
V26   V   0.82390  0.36408  0.31787
V27   V   0.82390  0.63592  0.18213
V28   V   0.82390  0.86408  0.68213
V29   V   0.88592  0.07390  0.43213
V30   V   0.88592  0.42610  0.93213
V31   V   0.88592  0.57390  0.56787
V32   V   0.88592  0.92610  0.06787
E1    E   0.00000  0.00000  0.00000
E2    E   0.00000  0.00000  0.50000
E3    E   0.00000  0.50000  0.00000
E4    E   0.00000  0.50000  0.50000
E5    E   0.03101  0.10491  0.37500
E6    E   0.03101  0.39509  0.87500
E7    E   0.03101  0.60491  0.62500
E8    E   0.03101  0.89509  0.12500
E9    E   0.14509  0.21899  0.87500
E10   E   0.14509  0.28101  0.37500
E11   E   0.14509  0.71899  0.12500
E12   E   0.14509  0.78101  0.62500
E13   E   0.17610  0.00000  0.25000
E14   E   0.17610  0.50000  0.75000
E15   E   0.21899  0.03101  0.62500
E16   E   0.21899  0.46899  0.12500
E17   E   0.21899  0.53101  0.37500
E18   E   0.21899  0.96899  0.87500
E19   E   0.21899  0.03101  0.62500
E20   E   0.21899  0.46899  0.12500
E21   E   0.21899  0.53101  0.37500
E22   E   0.21899  0.96899  0.87500
E23   E   0.25000  0.07390  0.00000
E24   E   0.25000  0.25000  0.25000
E25   E   0.25000  0.25000  0.75000
E26   E   0.25000  0.42610  0.50000
E27   E   0.25000  0.57390  0.00000
E28   E   0.25000  0.75000  0.25000
E29   E   0.25000  0.75000  0.75000
E30   E   0.25000  0.92610  0.50000
E31   E   0.28101  0.03101  0.37500
E32   E   0.28101  0.03101  0.37500
E33   E   0.28101  0.46899  0.87500
E34   E   0.28101  0.53101  0.62500
E35   E   0.28101  0.96899  0.12500
E36   E   0.32390  0.00000  0.75000
E37   E   0.32390  0.50000  0.25000
E38   E   0.35491  0.21899  0.12500
E39   E   0.35491  0.28101  0.62500
E40   E   0.35491  0.71899  0.87500
E41   E   0.35491  0.78101  0.37500
E42   E   0.46899  0.10491  0.62500
E43   E   0.46899  0.39509  0.12500
E44   E   0.46899  0.60491  0.37500
E45   E   0.46899  0.89509  0.87500
E46   E   0.50000  0.00000  0.00000
E47   E   0.50000  0.00000  0.50000
E48   E   0.50000  0.50000  0.00000
E49   E   0.50000  0.50000  0.50000
E50   E   0.53101  0.10491  0.12500
E51   E   0.53101  0.39509  0.62500
E52   E   0.53101  0.60491  0.87500
E53   E   0.53101  0.89509  0.37500
E54   E   0.64509  0.21899  0.62500
E55   E   0.64509  0.28101  0.12500
E56   E   0.64509  0.71899  0.37500
E57   E   0.64509  0.78101  0.87500
E58   E   0.67610  0.00000  0.25000
E59   E   0.67610  0.50000  0.75000
E60   E   0.71899  0.03101  0.87500
E61   E   0.71899  0.03101  0.87500
E62   E   0.71899  0.46899  0.37500
E63   E   0.71899  0.53101  0.12500
E64   E   0.71899  0.96899  0.62500
E65   E   0.75000  0.07390  0.50000
E66   E   0.75000  0.25000  0.25000
E67   E   0.75000  0.25000  0.75000
E68   E   0.75000  0.42610  0.00000
E69   E   0.75000  0.57390  0.50000
E70   E   0.75000  0.75000  0.25000
E71   E   0.75000  0.75000  0.75000
E72   E   0.75000  0.92610  0.00000
E73   E   0.78101  0.03101  0.12500
E74   E   0.78101  0.03101  0.12500
E75   E   0.78101  0.46899  0.62500
E76   E   0.78101  0.53101  0.87500
E77   E   0.78101  0.96899  0.37500
E78   E   0.82390  0.00000  0.75000
E79   E   0.82390  0.50000  0.25000
E80   E   0.85491  0.21899  0.37500
E81   E   0.85491  0.28101  0.87500
E82   E   0.85491  0.71899  0.62500
E83   E   0.85491  0.78101  0.12500
E84   E   0.96899  0.10491  0.87500
E85   E   0.96899  0.39509  0.37500
E86   E   0.96899  0.60491  0.12500
E87   E   0.96899  0.89509  0.62500
loop_
