data_wgo_I41/acd:2  hall_number: 429, V_con: 5
_audit_creation_date              2025-03-05
_audit_creation_method            'MOFbuilder_1.0'
_symmetry_space_group_name_H-M    'P1'
_symmetry_Int_Tables_number       1
_symmetry_cell_setting            triclinic
loop_
_symmetry_equiv_pos_as_xyz
  x,y,z
_cell_length_a                    19.9863
_cell_length_b                    19.9863
_cell_length_c                    72.1178
_cell_angle_alpha                 90.0
_cell_angle_beta                  90.0
_cell_angle_gamma                 90.0
loop_
_atom_site_label
_atom_site_type_symbol
_atom_site_fract_x
_atom_site_fract_y
_atom_site_fract_z
V1    V   0.06801  0.00925  0.93333
V2    V   0.06801  0.49075  0.43333
V3    V   0.06801  0.50925  0.06667
V4    V   0.06801  0.99075  0.56667
V5    V   0.24075  0.18199  0.31667
V6    V   0.24075  0.31801  0.81667
V7    V   0.24075  0.68199  0.68333
V8    V   0.24075  0.81801  0.18333
V9    V   0.25925  0.18199  0.68333
V10   V   0.25925  0.31801  0.18333
V11   V   0.25925  0.68199  0.31667
V12   V   0.25925  0.81801  0.81667
V13   V   0.43199  0.00925  0.06667
V14   V   0.43199  0.49075  0.56667
V15   V   0.43199  0.50925  0.93333
V16   V   0.43199  0.99075  0.43333
V17   V   0.56801  0.00925  0.56667
V18   V   0.56801  0.49075  0.06667
V19   V   0.56801  0.50925  0.43333
V20   V   0.56801  0.99075  0.93333
V21   V   0.74075  0.18199  0.18333
V22   V   0.74075  0.31801  0.68333
V23   V   0.74075  0.68199  0.81667
V24   V   0.74075  0.81801  0.31667
V25   V   0.75925  0.18199  0.81667
V26   V   0.75925  0.31801  0.31667
V27   V   0.75925  0.68199  0.18333
V28   V   0.75925  0.81801  0.68333
V29   V   0.93199  0.00925  0.43333
V30   V   0.93199  0.49075  0.93333
V31   V   0.93199  0.50925  0.56667
V32   V   0.93199  0.99075  0.06667
E1    E   0.00000  0.00000  0.00000
E2    E   0.00000  0.00000  0.50000
E3    E   0.00000  0.25000  0.31667
E4    E   0.00000  0.25000  0.43333
E5    E   0.00000  0.25000  0.81667
E6    E   0.00000  0.25000  0.93333
E7    E   0.00000  0.50000  0.00000
E8    E   0.00000  0.50000  0.50000
E9    E   0.00000  0.75000  0.06667
E10   E   0.00000  0.75000  0.18333
E11   E   0.00000  0.75000  0.56667
E12   E   0.00000  0.75000  0.68333
E13   E   0.16363  0.08637  0.62500
E14   E   0.16363  0.08637  0.62500
E15   E   0.16363  0.41363  0.12500
E16   E   0.16363  0.58637  0.37500
E17   E   0.16363  0.91363  0.87500
E18   E   0.18199  0.00000  0.06667
E19   E   0.18199  0.00000  0.43333
E20   E   0.18199  0.50000  0.56667
E21   E   0.18199  0.50000  0.93333
E22   E   0.25000  0.06801  0.18333
E23   E   0.25000  0.06801  0.81667
E24   E   0.25000  0.25000  0.25000
E25   E   0.25000  0.25000  0.75000
E26   E   0.25000  0.43199  0.31667
E27   E   0.25000  0.43199  0.68333
E28   E   0.25000  0.56801  0.18333
E29   E   0.25000  0.56801  0.81667
E30   E   0.25000  0.75000  0.25000
E31   E   0.25000  0.75000  0.75000
E32   E   0.25000  0.93199  0.31667
E33   E   0.25000  0.93199  0.68333
E34   E   0.31801  0.00000  0.56667
E35   E   0.31801  0.00000  0.93333
E36   E   0.31801  0.50000  0.06667
E37   E   0.31801  0.50000  0.43333
E38   E   0.33637  0.08637  0.37500
E39   E   0.33637  0.08637  0.37500
E40   E   0.33637  0.41363  0.87500
E41   E   0.33637  0.58637  0.62500
E42   E   0.33637  0.91363  0.12500
E43   E   0.50000  0.00000  0.00000
E44   E   0.50000  0.00000  0.50000
E45   E   0.50000  0.25000  0.06667
E46   E   0.50000  0.25000  0.18333
E47   E   0.50000  0.25000  0.56667
E48   E   0.50000  0.25000  0.68333
E49   E   0.50000  0.50000  0.00000
E50   E   0.50000  0.50000  0.50000
E51   E   0.50000  0.75000  0.31667
E52   E   0.50000  0.75000  0.43333
E53   E   0.50000  0.75000  0.81667
E54   E   0.50000  0.75000  0.93333
E55   E   0.66363  0.08637  0.87500
E56   E   0.66363  0.08637  0.87500
E57   E   0.66363  0.41363  0.37500
E58   E   0.66363  0.58637  0.12500
E59   E   0.66363  0.91363  0.62500
E60   E   0.68199  0.00000  0.06667
E61   E   0.68199  0.00000  0.43333
E62   E   0.68199  0.50000  0.56667
E63   E   0.68199  0.50000  0.93333
E64   E   0.75000  0.06801  0.31667
E65   E   0.75000  0.06801  0.68333
E66   E   0.75000  0.25000  0.25000
E67   E   0.75000  0.25000  0.75000
E68   E   0.75000  0.43199  0.18333
E69   E   0.75000  0.43199  0.81667
E70   E   0.75000  0.56801  0.31667
E71   E   0.75000  0.56801  0.68333
E72   E   0.75000  0.75000  0.25000
E73   E   0.75000  0.75000  0.75000
E74   E   0.75000  0.93199  0.18333
E75   E   0.75000  0.93199  0.81667
E76   E   0.81801  0.00000  0.56667
E77   E   0.81801  0.00000  0.93333
E78   E   0.81801  0.50000  0.06667
E79   E   0.81801  0.50000  0.43333
E80   E   0.83637  0.08637  0.12500
E81   E   0.83637  0.08637  0.12500
E82   E   0.83637  0.41363  0.62500
E83   E   0.83637  0.58637  0.87500
E84   E   0.83637  0.91363  0.37500
loop_
