data_whg_P4/nnc:2  hall_number: 405, V_con: 6
_audit_creation_date              2025-03-05
_audit_creation_method            'MOFbuilder_1.0'
_symmetry_space_group_name_H-M    'P1'
_symmetry_Int_Tables_number       1
_symmetry_cell_setting            triclinic
loop_
_symmetry_equiv_pos_as_xyz
  x,y,z
_cell_length_a                    25.4731
_cell_length_b                    25.4731
_cell_length_c                    27.6999
_cell_angle_alpha                 90.0
_cell_angle_beta                  90.0
_cell_angle_gamma                 90.0
loop_
_atom_site_label
_atom_site_type_symbol
_atom_site_fract_x
_atom_site_fract_y
_atom_site_fract_z
V1    V   0.01668  0.67294  0.08398
V2    V   0.01668  0.82706  0.41602
V3    V   0.17294  0.51668  0.58398
V4    V   0.17294  0.98332  0.91602
V5    V   0.32706  0.51668  0.91602
V6    V   0.32706  0.98332  0.58398
V7    V   0.48332  0.67294  0.41602
V8    V   0.48332  0.82706  0.08398
V9    V   0.51668  0.17294  0.91602
V10   V   0.51668  0.32706  0.58398
V11   V   0.67294  0.01668  0.41602
V12   V   0.67294  0.48332  0.08398
V13   V   0.82706  0.01668  0.08398
V14   V   0.82706  0.48332  0.41602
V15   V   0.98332  0.17294  0.58398
V16   V   0.98332  0.32706  0.91602
E1    E   0.00000  0.00000  0.00000
E2    E   0.00000  0.00000  0.50000
E3    E   0.00000  0.50000  0.00000
E4    E   0.00000  0.50000  0.50000
E5    E   0.01668  0.75000  0.25000
E6    E   0.07813  0.15519  0.91602
E7    E   0.07813  0.34481  0.58398
E8    E   0.09481  0.67187  0.50000
E9    E   0.09481  0.82813  0.00000
E10   E   0.15519  0.07813  0.58398
E11   E   0.15519  0.42187  0.91602
E12   E   0.17187  0.59481  0.00000
E13   E   0.17187  0.90519  0.50000
E14   E   0.25000  0.51668  0.75000
E15   E   0.25000  0.98332  0.75000
E16   E   0.32813  0.59481  0.50000
E17   E   0.32813  0.90519  0.00000
E18   E   0.34481  0.07813  0.91602
E19   E   0.34481  0.42187  0.58398
E20   E   0.40519  0.67187  0.00000
E21   E   0.40519  0.82813  0.50000
E22   E   0.42187  0.15519  0.58398
E23   E   0.42187  0.34481  0.91602
E24   E   0.48332  0.75000  0.25000
E25   E   0.50000  0.00000  0.00000
E26   E   0.50000  0.00000  0.50000
E27   E   0.50000  0.50000  0.00000
E28   E   0.50000  0.50000  0.50000
E29   E   0.51668  0.25000  0.75000
E30   E   0.57813  0.65519  0.08398
E31   E   0.57813  0.84481  0.41602
E32   E   0.59481  0.17187  0.50000
E33   E   0.59481  0.32813  0.00000
E34   E   0.65519  0.57813  0.41602
E35   E   0.65519  0.92187  0.08398
E36   E   0.67187  0.09481  0.00000
E37   E   0.67187  0.40519  0.50000
E38   E   0.75000  0.01668  0.25000
E39   E   0.75000  0.48332  0.25000
E40   E   0.82813  0.09481  0.50000
E41   E   0.82813  0.40519  0.00000
E42   E   0.84481  0.57813  0.08398
E43   E   0.84481  0.92187  0.41602
E44   E   0.90519  0.17187  0.00000
E45   E   0.90519  0.32813  0.50000
E46   E   0.92187  0.65519  0.41602
E47   E   0.92187  0.84481  0.08398
E48   E   0.98332  0.25000  0.75000
loop_
