data_whk_P4/ncc:2  hall_number: 411, V_con: 6
_audit_creation_date              2025-03-05
_audit_creation_method            'MOFbuilder_1.0'
_symmetry_space_group_name_H-M    'P1'
_symmetry_Int_Tables_number       1
_symmetry_cell_setting            triclinic
loop_
_symmetry_equiv_pos_as_xyz
  x,y,z
_cell_length_a                    23.6625
_cell_length_b                    23.6625
_cell_length_c                    31.2194
_cell_angle_alpha                 90.0
_cell_angle_beta                  90.0
_cell_angle_gamma                 90.0
loop_
_atom_site_label
_atom_site_type_symbol
_atom_site_fract_x
_atom_site_fract_y
_atom_site_fract_z
V1    V   0.04465  0.70019  0.61325
V2    V   0.04465  0.79981  0.11325
V3    V   0.20019  0.54465  0.88675
V4    V   0.20019  0.95535  0.38675
V5    V   0.29981  0.54465  0.38675
V6    V   0.29981  0.95535  0.88675
V7    V   0.45535  0.70019  0.11325
V8    V   0.45535  0.79981  0.61325
V9    V   0.54465  0.20019  0.38675
V10   V   0.54465  0.29981  0.88675
V11   V   0.70019  0.04465  0.11325
V12   V   0.70019  0.45535  0.61325
V13   V   0.79981  0.04465  0.61325
V14   V   0.79981  0.45535  0.11325
V15   V   0.95535  0.20019  0.88675
V16   V   0.95535  0.29981  0.38675
E1    E   0.07777  0.12758  0.38675
E2    E   0.07777  0.37242  0.88675
E3    E   0.12242  0.62242  0.75000
E4    E   0.12242  0.87758  0.25000
E5    E   0.12242  0.62242  0.75000
E6    E   0.12242  0.67223  0.00000
E7    E   0.12242  0.82777  0.50000
E8    E   0.12242  0.87758  0.25000
E9    E   0.12758  0.07777  0.88675
E10   E   0.12758  0.42223  0.38675
E11   E   0.17223  0.62242  0.50000
E12   E   0.17223  0.87758  0.00000
E13   E   0.25000  0.75000  0.11325
E14   E   0.25000  0.75000  0.38675
E15   E   0.25000  0.75000  0.61325
E16   E   0.25000  0.75000  0.88675
E17   E   0.32777  0.62242  0.00000
E18   E   0.32777  0.87758  0.50000
E19   E   0.37242  0.07777  0.38675
E20   E   0.37242  0.42223  0.88675
E21   E   0.37758  0.62242  0.25000
E22   E   0.37758  0.67223  0.50000
E23   E   0.37758  0.82777  0.00000
E24   E   0.37758  0.87758  0.75000
E25   E   0.42223  0.12758  0.88675
E26   E   0.42223  0.37242  0.38675
E27   E   0.57777  0.62758  0.61325
E28   E   0.57777  0.87242  0.11325
E29   E   0.62242  0.12242  0.25000
E30   E   0.62242  0.12242  0.25000
E31   E   0.62242  0.17223  0.00000
E32   E   0.62242  0.32777  0.50000
E33   E   0.62242  0.37758  0.75000
E34   E   0.62758  0.57777  0.11325
E35   E   0.62758  0.92223  0.61325
E36   E   0.67223  0.12242  0.50000
E37   E   0.67223  0.37758  0.00000
E38   E   0.75000  0.25000  0.11325
E39   E   0.75000  0.25000  0.38675
E40   E   0.75000  0.25000  0.61325
E41   E   0.75000  0.25000  0.88675
E42   E   0.82777  0.12242  0.00000
E43   E   0.82777  0.37758  0.50000
E44   E   0.87242  0.57777  0.61325
E45   E   0.87242  0.92223  0.11325
E46   E   0.87758  0.12242  0.75000
E47   E   0.87758  0.12242  0.75000
E48   E   0.87758  0.17223  0.50000
E49   E   0.87758  0.32777  0.00000
E50   E   0.87758  0.37758  0.25000
E51   E   0.92223  0.62758  0.11325
E52   E   0.92223  0.87242  0.61325
loop_
