data_who_P42/nbc:2  hall_number: 415, V_con: 6
_audit_creation_date              2025-03-05
_audit_creation_method            'MOFbuilder_1.0'
_symmetry_space_group_name_H-M    'P1'
_symmetry_Int_Tables_number       1
_symmetry_cell_setting            triclinic
loop_
_symmetry_equiv_pos_as_xyz
  x,y,z
_cell_length_a                    19.8352
_cell_length_b                    19.8352
_cell_length_c                    36.6153
_cell_angle_alpha                 90.0
_cell_angle_beta                  90.0
_cell_angle_gamma                 90.0
loop_
_atom_site_label
_atom_site_type_symbol
_atom_site_fract_x
_atom_site_fract_y
_atom_site_fract_z
V1    V   0.03231  0.12291  0.88207
V2    V   0.03231  0.37709  0.11793
V3    V   0.12291  0.03231  0.61793
V4    V   0.12291  0.46769  0.38207
V5    V   0.37709  0.03231  0.38207
V6    V   0.37709  0.46769  0.61793
V7    V   0.46769  0.12291  0.11793
V8    V   0.46769  0.37709  0.88207
V9    V   0.53231  0.62291  0.11793
V10   V   0.53231  0.87709  0.88207
V11   V   0.62291  0.53231  0.38207
V12   V   0.62291  0.96769  0.61793
V13   V   0.87709  0.53231  0.61793
V14   V   0.87709  0.96769  0.38207
V15   V   0.96769  0.62291  0.88207
V16   V   0.96769  0.87709  0.11793
E1    E   0.00000  0.00000  0.00000
E2    E   0.00000  0.00000  0.50000
E3    E   0.00000  0.12709  0.11793
E4    E   0.00000  0.37291  0.88207
E5    E   0.00000  0.50000  0.00000
E6    E   0.00000  0.50000  0.50000
E7    E   0.00000  0.62709  0.11793
E8    E   0.00000  0.87291  0.88207
E9    E   0.03231  0.25000  0.00000
E10   E   0.07761  0.07761  0.75000
E11   E   0.07761  0.42239  0.25000
E12   E   0.07761  0.07761  0.75000
E13   E   0.07761  0.42239  0.25000
E14   E   0.12709  0.00000  0.38207
E15   E   0.12709  0.50000  0.61793
E16   E   0.25000  0.03231  0.50000
E17   E   0.25000  0.25000  0.11793
E18   E   0.25000  0.25000  0.38207
E19   E   0.25000  0.25000  0.61793
E20   E   0.25000  0.25000  0.88207
E21   E   0.25000  0.46769  0.50000
E22   E   0.37291  0.00000  0.61793
E23   E   0.37291  0.50000  0.38207
E24   E   0.42239  0.07761  0.25000
E25   E   0.42239  0.07761  0.25000
E26   E   0.42239  0.42239  0.75000
E27   E   0.46769  0.25000  0.00000
E28   E   0.50000  0.00000  0.00000
E29   E   0.50000  0.00000  0.50000
E30   E   0.50000  0.12709  0.88207
E31   E   0.50000  0.37291  0.11793
E32   E   0.50000  0.50000  0.00000
E33   E   0.50000  0.50000  0.50000
E34   E   0.50000  0.62709  0.88207
E35   E   0.50000  0.87291  0.11793
E36   E   0.53231  0.75000  0.00000
E37   E   0.57761  0.57761  0.25000
E38   E   0.57761  0.92239  0.75000
E39   E   0.62709  0.00000  0.38207
E40   E   0.62709  0.50000  0.61793
E41   E   0.75000  0.53231  0.50000
E42   E   0.75000  0.75000  0.11793
E43   E   0.75000  0.75000  0.38207
E44   E   0.75000  0.75000  0.61793
E45   E   0.75000  0.75000  0.88207
E46   E   0.75000  0.96769  0.50000
E47   E   0.87291  0.00000  0.61793
E48   E   0.87291  0.50000  0.38207
E49   E   0.92239  0.57761  0.75000
E50   E   0.92239  0.92239  0.25000
E51   E   0.96769  0.75000  0.00000
loop_
