data_wir_I41/acd:2  hall_number: 429, V_con: 6
_audit_creation_date              2025-03-05
_audit_creation_method            'MOFbuilder_1.0'
_symmetry_space_group_name_H-M    'P1'
_symmetry_Int_Tables_number       1
_symmetry_cell_setting            triclinic
loop_
_symmetry_equiv_pos_as_xyz
  x,y,z
_cell_length_a                    23.8298
_cell_length_b                    23.8298
_cell_length_c                    58.7567
_cell_angle_alpha                 90.0
_cell_angle_beta                  90.0
_cell_angle_gamma                 90.0
loop_
_atom_site_label
_atom_site_type_symbol
_atom_site_fract_x
_atom_site_fract_y
_atom_site_fract_z
V1    V   0.11408  0.07390  0.93517
V2    V   0.11408  0.42610  0.43517
V3    V   0.11408  0.57390  0.06483
V4    V   0.11408  0.92610  0.56483
V5    V   0.17610  0.13592  0.31483
V6    V   0.17610  0.36408  0.81483
V7    V   0.17610  0.63592  0.68517
V8    V   0.17610  0.86408  0.18517
V9    V   0.32390  0.13592  0.68517
V10   V   0.32390  0.36408  0.18517
V11   V   0.32390  0.63592  0.31483
V12   V   0.32390  0.86408  0.81483
V13   V   0.38592  0.07390  0.06483
V14   V   0.38592  0.42610  0.56483
V15   V   0.38592  0.57390  0.93517
V16   V   0.38592  0.92610  0.43517
V17   V   0.61408  0.07390  0.56483
V18   V   0.61408  0.42610  0.06483
V19   V   0.61408  0.57390  0.43517
V20   V   0.61408  0.92610  0.93517
V21   V   0.67610  0.13592  0.18517
V22   V   0.67610  0.36408  0.68517
V23   V   0.67610  0.63592  0.81483
V24   V   0.67610  0.86408  0.31483
V25   V   0.82390  0.13592  0.81483
V26   V   0.82390  0.36408  0.31483
V27   V   0.82390  0.63592  0.18517
V28   V   0.82390  0.86408  0.68517
V29   V   0.88592  0.07390  0.43517
V30   V   0.88592  0.42610  0.93517
V31   V   0.88592  0.57390  0.56483
V32   V   0.88592  0.92610  0.06483
E1    E   0.00000  0.00000  0.00000
E2    E   0.00000  0.00000  0.50000
E3    E   0.00000  0.25000  0.31483
E4    E   0.00000  0.25000  0.43517
E5    E   0.00000  0.25000  0.81483
E6    E   0.00000  0.25000  0.93517
E7    E   0.00000  0.50000  0.00000
E8    E   0.00000  0.50000  0.50000
E9    E   0.00000  0.75000  0.06483
E10   E   0.00000  0.75000  0.18517
E11   E   0.00000  0.75000  0.56483
E12   E   0.00000  0.75000  0.68517
E13   E   0.03101  0.10491  0.37500
E14   E   0.03101  0.39509  0.87500
E15   E   0.03101  0.60491  0.62500
E16   E   0.03101  0.89509  0.12500
E17   E   0.14509  0.21899  0.87500
E18   E   0.14509  0.28101  0.37500
E19   E   0.14509  0.71899  0.12500
E20   E   0.14509  0.78101  0.62500
E21   E   0.17610  0.00000  0.25000
E22   E   0.17610  0.50000  0.75000
E23   E   0.21899  0.03101  0.62500
E24   E   0.21899  0.46899  0.12500
E25   E   0.21899  0.53101  0.37500
E26   E   0.21899  0.96899  0.87500
E27   E   0.21899  0.03101  0.62500
E28   E   0.21899  0.46899  0.12500
E29   E   0.21899  0.53101  0.37500
E30   E   0.21899  0.96899  0.87500
E31   E   0.25000  0.07390  0.00000
E32   E   0.25000  0.25000  0.25000
E33   E   0.25000  0.25000  0.75000
E34   E   0.25000  0.42610  0.50000
E35   E   0.25000  0.57390  0.00000
E36   E   0.25000  0.75000  0.25000
E37   E   0.25000  0.75000  0.75000
E38   E   0.25000  0.92610  0.50000
E39   E   0.28101  0.03101  0.37500
E40   E   0.28101  0.03101  0.37500
E41   E   0.28101  0.46899  0.87500
E42   E   0.28101  0.53101  0.62500
E43   E   0.28101  0.96899  0.12500
E44   E   0.32390  0.00000  0.75000
E45   E   0.32390  0.50000  0.25000
E46   E   0.35491  0.21899  0.12500
E47   E   0.35491  0.28101  0.62500
E48   E   0.35491  0.71899  0.87500
E49   E   0.35491  0.78101  0.37500
E50   E   0.46899  0.10491  0.62500
E51   E   0.46899  0.39509  0.12500
E52   E   0.46899  0.60491  0.37500
E53   E   0.46899  0.89509  0.87500
E54   E   0.50000  0.00000  0.00000
E55   E   0.50000  0.00000  0.50000
E56   E   0.50000  0.25000  0.06483
E57   E   0.50000  0.25000  0.18517
E58   E   0.50000  0.25000  0.56483
E59   E   0.50000  0.25000  0.68517
E60   E   0.50000  0.50000  0.00000
E61   E   0.50000  0.50000  0.50000
E62   E   0.50000  0.75000  0.31483
E63   E   0.50000  0.75000  0.43517
E64   E   0.50000  0.75000  0.81483
E65   E   0.50000  0.75000  0.93517
E66   E   0.53101  0.10491  0.12500
E67   E   0.53101  0.39509  0.62500
E68   E   0.53101  0.60491  0.87500
E69   E   0.53101  0.89509  0.37500
E70   E   0.64509  0.21899  0.62500
E71   E   0.64509  0.28101  0.12500
E72   E   0.64509  0.71899  0.37500
E73   E   0.64509  0.78101  0.87500
E74   E   0.67610  0.00000  0.25000
E75   E   0.67610  0.50000  0.75000
E76   E   0.71899  0.03101  0.87500
E77   E   0.71899  0.03101  0.87500
E78   E   0.71899  0.46899  0.37500
E79   E   0.71899  0.53101  0.12500
E80   E   0.71899  0.96899  0.62500
E81   E   0.75000  0.07390  0.50000
E82   E   0.75000  0.25000  0.25000
E83   E   0.75000  0.25000  0.75000
E84   E   0.75000  0.42610  0.00000
E85   E   0.75000  0.57390  0.50000
E86   E   0.75000  0.75000  0.25000
E87   E   0.75000  0.75000  0.75000
E88   E   0.75000  0.92610  0.00000
E89   E   0.78101  0.03101  0.12500
E90   E   0.78101  0.03101  0.12500
E91   E   0.78101  0.46899  0.62500
E92   E   0.78101  0.53101  0.87500
E93   E   0.78101  0.96899  0.37500
E94   E   0.82390  0.00000  0.75000
E95   E   0.82390  0.50000  0.25000
E96   E   0.85491  0.21899  0.37500
E97   E   0.85491  0.28101  0.87500
E98   E   0.85491  0.71899  0.62500
E99   E   0.85491  0.78101  0.12500
E100  E   0.96899  0.10491  0.87500
E101  E   0.96899  0.39509  0.37500
E102  E   0.96899  0.60491  0.12500
E103  E   0.96899  0.89509  0.62500
loop_
