data_wiy_P6122  hall_number: 472, V_con: 3
_audit_creation_date              2025-03-05
_audit_creation_method            'MOFbuilder_1.0'
_symmetry_space_group_name_H-M    'P1'
_symmetry_Int_Tables_number       1
_symmetry_cell_setting            triclinic
loop_
_symmetry_equiv_pos_as_xyz
  x,y,z
_cell_length_a                    38.8404
_cell_length_b                    38.8404
_cell_length_c                    15.2206
_cell_angle_alpha                 90.0
_cell_angle_beta                  90.0
_cell_angle_gamma                 120.0
loop_
_atom_site_label
_atom_site_type_symbol
_atom_site_fract_x
_atom_site_fract_y
_atom_site_fract_z
V1    V   0.11051  0.42707  0.05304
V2    V   0.11051  0.68344  0.11363
V3    V   0.31656  0.42707  0.44696
V4    V   0.31656  0.88949  0.71971
V5    V   0.42707  0.11051  0.28029
V6    V   0.42707  0.31656  0.88637
V7    V   0.57293  0.68344  0.38637
V8    V   0.57293  0.88949  0.78029
V9    V   0.68344  0.11051  0.21971
V10   V   0.68344  0.57293  0.94696
V11   V   0.88949  0.31656  0.61363
V12   V   0.88949  0.57293  0.55304
E1    E   0.00000  0.37182  0.83333
E2    E   0.00000  0.37182  0.83334
E3    E   0.00000  0.62818  0.33333
E4    E   0.00000  0.62818  0.33334
E5    E   0.11051  0.55525  0.08333
E6    E   0.11051  0.55526  0.08334
E7    E   0.21353  0.42707  0.25000
E8    E   0.21353  0.78646  0.91667
E9    E   0.21354  0.42707  0.25000
E10   E   0.21354  0.78647  0.91667
E11   E   0.37182  0.00000  0.50000
E12   E   0.37182  0.00000  0.50000
E13   E   0.37182  0.37182  0.66666
E14   E   0.37182  0.37182  0.66667
E15   E   0.42707  0.21353  0.08333
E16   E   0.42707  0.21354  0.08333
E17   E   0.44474  0.55525  0.41667
E18   E   0.44474  0.88949  0.75000
E19   E   0.44475  0.55526  0.41666
E20   E   0.44475  0.88949  0.75000
E21   E   0.55525  0.11051  0.25000
E22   E   0.55525  0.44474  0.91666
E23   E   0.55526  0.11051  0.25000
E24   E   0.55526  0.44475  0.91667
E25   E   0.57293  0.78646  0.58333
E26   E   0.57293  0.78647  0.58333
E27   E   0.62818  0.00000  0.00000
E28   E   0.62818  0.00000  1.00000
E29   E   0.62818  0.62818  0.16666
E30   E   0.62818  0.62818  0.16667
E31   E   0.78646  0.21353  0.41667
E32   E   0.78646  0.57293  0.75000
E33   E   0.78647  0.21354  0.41667
E34   E   0.78647  0.57293  0.75000
E35   E   0.88949  0.44474  0.58334
E36   E   0.88949  0.44475  0.58333
loop_
