data_wjk_P6222  hall_number: 474, V_con: 5
_audit_creation_date              2025-03-05
_audit_creation_method            'MOFbuilder_1.0'
_symmetry_space_group_name_H-M    'P1'
_symmetry_Int_Tables_number       1
_symmetry_cell_setting            triclinic
loop_
_symmetry_equiv_pos_as_xyz
  x,y,z
_cell_length_a                    19.3185
_cell_length_b                    19.3185
_cell_length_c                    50.1912
_cell_angle_alpha                 90.0
_cell_angle_beta                  90.0
_cell_angle_gamma                 120.0
loop_
_atom_site_label
_atom_site_type_symbol
_atom_site_fract_x
_atom_site_fract_y
_atom_site_fract_z
V1    V   0.07734  0.28867  0.76289
V2    V   0.07734  0.78867  0.57044
V3    V   0.21133  0.28867  0.23711
V4    V   0.21133  0.92266  0.09622
V5    V   0.28867  0.07734  0.90378
V6    V   0.28867  0.21133  0.42956
V7    V   0.71133  0.78867  0.42956
V8    V   0.71133  0.92266  0.90378
V9    V   0.78867  0.07734  0.09622
V10   V   0.78867  0.71133  0.23711
V11   V   0.92266  0.21133  0.57044
V12   V   0.92266  0.71133  0.76289
E1    E   0.00000  0.00000  0.09622
E2    E   0.00000  0.00000  0.23711
E3    E   0.00000  0.00000  0.42956
E4    E   0.00000  0.00000  0.57044
E5    E   0.00000  0.00000  0.76289
E6    E   0.00000  0.00000  0.90378
E7    E   0.00000  0.18301  0.16666
E8    E   0.00000  0.18301  0.16667
E9    E   0.00000  0.25000  0.66666
E10   E   0.00000  0.25000  0.66667
E11   E   0.00000  0.50000  0.57044
E12   E   0.00000  0.50000  0.76289
E13   E   0.00000  0.75000  0.66666
E14   E   0.00000  0.75000  0.66667
E15   E   0.00000  0.81699  0.16666
E16   E   0.00000  0.81699  0.16667
E17   E   0.10566  0.21133  0.50000
E18   E   0.10566  0.89433  0.83334
E19   E   0.10567  0.21133  0.50000
E20   E   0.10567  0.89434  0.83333
E21   E   0.18301  0.00000  0.50000
E22   E   0.18301  0.00000  0.50000
E23   E   0.18301  0.18301  0.83333
E24   E   0.18301  0.18301  0.83334
E25   E   0.21133  0.10566  0.16667
E26   E   0.21133  0.10567  0.16666
E27   E   0.25000  0.00000  0.00000
E28   E   0.25000  0.00000  1.00000
E29   E   0.25000  0.25000  0.33333
E30   E   0.25000  0.25000  0.33334
E31   E   0.50000  0.00000  0.09622
E32   E   0.50000  0.00000  0.90378
E33   E   0.50000  0.50000  0.23711
E34   E   0.50000  0.50000  0.42956
E35   E   0.75000  0.00000  0.00000
E36   E   0.75000  0.00000  1.00000
E37   E   0.75000  0.75000  0.33333
E38   E   0.75000  0.75000  0.33334
E39   E   0.78867  0.89433  0.16666
E40   E   0.78867  0.89434  0.16667
E41   E   0.81699  0.00000  0.50000
E42   E   0.81699  0.00000  0.50000
E43   E   0.81699  0.81699  0.83333
E44   E   0.81699  0.81699  0.83334
E45   E   0.89433  0.10566  0.83333
E46   E   0.89433  0.78867  0.50000
E47   E   0.89434  0.10567  0.83334
E48   E   0.89434  0.78867  0.50000
loop_
