data_wjl_P6122  hall_number: 472, V_con: 5
_audit_creation_date              2025-03-05
_audit_creation_method            'MOFbuilder_1.0'
_symmetry_space_group_name_H-M    'P1'
_symmetry_Int_Tables_number       1
_symmetry_cell_setting            triclinic
loop_
_symmetry_equiv_pos_as_xyz
  x,y,z
_cell_length_a                    18.7762
_cell_length_b                    18.7762
_cell_length_c                    45.8206
_cell_angle_alpha                 90.0
_cell_angle_beta                  90.0
_cell_angle_gamma                 120.0
loop_
_atom_site_label
_atom_site_type_symbol
_atom_site_fract_x
_atom_site_fract_y
_atom_site_fract_z
V1    V   0.16956  0.39568  0.50650
V2    V   0.16956  0.77388  0.66017
V3    V   0.22612  0.39568  0.99350
V4    V   0.22612  0.83044  0.17316
V5    V   0.39568  0.16956  0.82684
V6    V   0.39568  0.22612  0.33983
V7    V   0.60432  0.77388  0.83983
V8    V   0.60432  0.83044  0.32684
V9    V   0.77388  0.16956  0.67316
V10   V   0.77388  0.60432  0.49350
V11   V   0.83044  0.22612  0.16017
V12   V   0.83044  0.60432  0.00650
E1    E   0.02828  0.31090  0.07683
E2    E   0.02828  0.50000  0.00000
E3    E   0.02828  0.52828  0.16666
E4    E   0.02828  0.71738  0.08983
E5    E   0.16956  0.58478  0.58334
E6    E   0.16956  0.58478  0.58333
E7    E   0.28262  0.31090  0.42317
E8    E   0.28262  0.97172  0.74350
E9    E   0.31090  0.02828  0.25650
E10   E   0.31090  0.28262  0.91017
E11   E   0.41522  0.58478  0.91666
E12   E   0.41522  0.83044  0.25000
E13   E   0.41522  0.58478  0.91667
E14   E   0.41522  0.83044  0.25000
E15   E   0.47172  0.50000  0.50000
E16   E   0.47172  0.97172  0.66667
E17   E   0.50000  0.02828  0.33333
E18   E   0.50000  0.47172  0.83334
E19   E   0.50000  0.52828  0.33334
E20   E   0.50000  0.97172  0.83333
E21   E   0.52828  0.02828  0.16667
E22   E   0.52828  0.50000  1.00000
E23   E   0.58478  0.16956  0.75000
E24   E   0.58478  0.41522  0.41667
E25   E   0.58478  0.16956  0.75000
E26   E   0.58478  0.41522  0.41666
E27   E   0.68910  0.71738  0.41017
E28   E   0.68910  0.97172  0.75650
E29   E   0.71738  0.02828  0.24350
E30   E   0.71738  0.68910  0.92317
E31   E   0.83044  0.41522  0.08333
E32   E   0.83044  0.41522  0.08334
E33   E   0.97172  0.28262  0.58983
E34   E   0.97172  0.47172  0.66666
E35   E   0.97172  0.50000  0.50000
E36   E   0.97172  0.68910  0.57683
loop_
