data_wjp_P6122  hall_number: 472, V_con: 5
_audit_creation_date              2025-03-05
_audit_creation_method            'MOFbuilder_1.0'
_symmetry_space_group_name_H-M    'P1'
_symmetry_Int_Tables_number       1
_symmetry_cell_setting            triclinic
loop_
_symmetry_equiv_pos_as_xyz
  x,y,z
_cell_length_a                    23.476
_cell_length_b                    23.476
_cell_length_c                    39.4124
_cell_angle_alpha                 90.0
_cell_angle_beta                  90.0
_cell_angle_gamma                 120.0
loop_
_atom_site_label
_atom_site_type_symbol
_atom_site_fract_x
_atom_site_fract_y
_atom_site_fract_z
V1    V   0.13288  0.36630  0.62673
V2    V   0.13288  0.76658  0.53994
V3    V   0.23342  0.36630  0.87327
V4    V   0.23342  0.86712  0.29339
V5    V   0.36630  0.13288  0.70661
V6    V   0.36630  0.23342  0.46006
V7    V   0.63370  0.76658  0.96006
V8    V   0.63370  0.86712  0.20661
V9    V   0.76658  0.13288  0.79339
V10   V   0.76658  0.63370  0.37327
V11   V   0.86712  0.23342  0.03994
V12   V   0.86712  0.63370  0.12673
E1    E   0.00000  0.24959  0.83333
E2    E   0.00000  0.75041  0.33333
E3    E   0.00000  0.75041  0.33333
E4    E   0.05027  0.29986  0.95661
E5    E   0.05027  0.75041  0.21005
E6    E   0.13288  0.56644  0.58333
E7    E   0.13288  0.56644  0.58334
E8    E   0.18315  0.36630  0.75000
E9    E   0.18315  0.36630  0.75000
E10   E   0.18315  0.81685  0.41666
E11   E   0.18315  0.81685  0.41667
E12   E   0.24959  0.00000  0.50000
E13   E   0.24959  0.24959  0.66667
E14   E   0.24959  0.29986  0.54339
E15   E   0.24959  0.94973  0.62328
E16   E   0.29986  0.05027  0.37672
E17   E   0.29986  0.24959  0.78995
E18   E   0.36630  0.18315  0.58333
E19   E   0.36630  0.18315  0.58334
E20   E   0.43356  0.56644  0.91667
E21   E   0.43356  0.86712  0.25000
E22   E   0.43356  0.56644  0.91666
E23   E   0.43356  0.86712  0.25000
E24   E   0.56644  0.13288  0.75000
E25   E   0.56644  0.13288  0.75000
E26   E   0.56644  0.43356  0.41666
E27   E   0.56644  0.43356  0.41667
E28   E   0.63370  0.81685  0.08333
E29   E   0.63370  0.81685  0.08334
E30   E   0.70014  0.75041  0.28995
E31   E   0.70014  0.94973  0.87672
E32   E   0.75041  0.00000  0.00000
E33   E   0.75041  0.05027  0.12328
E34   E   0.75041  0.70014  0.04339
E35   E   0.75041  0.75041  0.16667
E36   E   0.75041  0.75041  0.16667
E37   E   0.81685  0.18315  0.91666
E38   E   0.81685  0.18315  0.91667
E39   E   0.81685  0.63370  0.25000
E40   E   0.81685  0.63370  0.25000
E41   E   0.86712  0.43356  0.08334
E42   E   0.86712  0.43356  0.08333
E43   E   0.94973  0.24959  0.71005
E44   E   0.94973  0.70014  0.45661
loop_
