data_wkh_P6122  hall_number: 472, V_con: 6
_audit_creation_date              2025-03-05
_audit_creation_method            'MOFbuilder_1.0'
_symmetry_space_group_name_H-M    'P1'
_symmetry_Int_Tables_number       1
_symmetry_cell_setting            triclinic
loop_
_symmetry_equiv_pos_as_xyz
  x,y,z
_cell_length_a                    17.1849
_cell_length_b                    17.1849
_cell_length_c                    51.0668
_cell_angle_alpha                 90.0
_cell_angle_beta                  90.0
_cell_angle_gamma                 120.0
loop_
_atom_site_label
_atom_site_type_symbol
_atom_site_fract_x
_atom_site_fract_y
_atom_site_fract_z
V1    V   0.06669  0.33333  0.48777
V2    V   0.06669  0.73336  0.67890
V3    V   0.26664  0.33333  0.01223
V4    V   0.26664  0.93331  0.15444
V5    V   0.33333  0.06669  0.84556
V6    V   0.33333  0.26664  0.32110
V7    V   0.66667  0.73336  0.82110
V8    V   0.66667  0.93331  0.34556
V9    V   0.73336  0.06669  0.65444
V10   V   0.73336  0.66667  0.51223
V11   V   0.93331  0.26664  0.17890
V12   V   0.93331  0.66667  0.98777
E1    E   0.00000  0.09998  0.33333
E2    E   0.00000  0.90002  0.83333
E3    E   0.09998  0.50000  0.00000
E4    E   0.09998  0.59998  0.16667
E5    E   0.09998  0.29999  0.09556
E6    E   0.09998  0.79999  0.07111
E7    E   0.09998  0.00000  0.00000
E8    E   0.09998  0.09998  0.16667
E9    E   0.13332  0.26664  0.25000
E10   E   0.13332  0.26664  0.25000
E11   E   0.13332  0.86668  0.91666
E12   E   0.13332  0.86668  0.91667
E13   E   0.20001  0.29999  0.40444
E14   E   0.20001  0.90002  0.76222
E15   E   0.26664  0.13332  0.08333
E16   E   0.26664  0.13332  0.08334
E17   E   0.29999  0.09998  0.23778
E18   E   0.29999  0.20001  0.92889
E19   E   0.40002  0.50000  0.50000
E20   E   0.40002  0.90002  0.66667
E21   E   0.50000  0.09998  0.33333
E22   E   0.50000  0.40002  0.83333
E23   E   0.50000  0.59998  0.33333
E24   E   0.50000  0.90002  0.83333
E25   E   0.59998  0.09998  0.16667
E26   E   0.59998  0.50000  0.00000
E27   E   0.70001  0.79999  0.42889
E28   E   0.70001  0.90002  0.73778
E29   E   0.73336  0.86668  0.58333
E30   E   0.73336  0.86668  0.58334
E31   E   0.79999  0.09998  0.26222
E32   E   0.79999  0.70001  0.90444
E33   E   0.86668  0.13332  0.41666
E34   E   0.86668  0.13332  0.41667
E35   E   0.86668  0.73336  0.75000
E36   E   0.86668  0.73336  0.75000
E37   E   0.90002  0.00000  0.50000
E38   E   0.90002  0.20001  0.57111
E39   E   0.90002  0.40002  0.66667
E40   E   0.90002  0.50000  0.50000
E41   E   0.90002  0.70001  0.59556
E42   E   0.90002  0.90002  0.66667
loop_
