data_wki_P6122  hall_number: 472, V_con: 6
_audit_creation_date              2025-03-05
_audit_creation_method            'MOFbuilder_1.0'
_symmetry_space_group_name_H-M    'P1'
_symmetry_Int_Tables_number       1
_symmetry_cell_setting            triclinic
loop_
_symmetry_equiv_pos_as_xyz
  x,y,z
_cell_length_a                    18.2198
_cell_length_b                    18.2198
_cell_length_c                    45.6248
_cell_angle_alpha                 90.0
_cell_angle_beta                  90.0
_cell_angle_gamma                 120.0
loop_
_atom_site_label
_atom_site_type_symbol
_atom_site_fract_x
_atom_site_fract_y
_atom_site_fract_z
V1    V   0.03438  0.37239  0.99024
V2    V   0.03438  0.66199  0.17642
V3    V   0.33801  0.37239  0.50976
V4    V   0.33801  0.96562  0.65691
V5    V   0.37239  0.03438  0.34309
V6    V   0.37239  0.33801  0.82358
V7    V   0.62761  0.66199  0.32358
V8    V   0.62761  0.96562  0.84309
V9    V   0.66199  0.03438  0.15691
V10   V   0.66199  0.62761  0.00976
V11   V   0.96562  0.33801  0.67642
V12   V   0.96562  0.62761  0.49024
E1    E   0.03438  0.51719  0.08333
E2    E   0.03438  0.51719  0.08333
E3    E   0.15181  0.35520  0.59309
E4    E   0.15181  0.50000  0.50000
E5    E   0.15181  0.65181  0.66666
E6    E   0.15181  0.79661  0.57357
E7    E   0.16900  0.33800  0.75000
E8    E   0.16900  0.33800  0.75000
E9    E   0.16900  0.83100  0.41666
E10   E   0.16900  0.83100  0.41667
E11   E   0.20339  0.35520  0.90691
E12   E   0.20339  0.84819  0.25976
E13   E   0.33800  0.16900  0.58333
E14   E   0.33800  0.16900  0.58334
E15   E   0.34819  0.50000  1.00000
E16   E   0.34819  0.84819  0.16667
E17   E   0.35520  0.15181  0.74024
E18   E   0.35520  0.20339  0.42643
E19   E   0.48281  0.51719  0.41667
E20   E   0.48281  0.96562  0.75000
E21   E   0.48281  0.51719  0.41667
E22   E   0.48281  0.96562  0.75000
E23   E   0.50000  0.15181  0.83333
E24   E   0.50000  0.34819  0.33334
E25   E   0.50000  0.65181  0.83334
E26   E   0.50000  0.84819  0.33333
E27   E   0.51719  0.03438  0.25000
E28   E   0.51719  0.48281  0.91667
E29   E   0.51719  0.48281  0.91667
E30   E   0.64480  0.79661  0.92643
E31   E   0.64480  0.84819  0.24024
E32   E   0.65181  0.15181  0.66667
E33   E   0.65181  0.50000  0.50000
E34   E   0.66200  0.83100  0.08333
E35   E   0.66200  0.83100  0.08334
E36   E   0.79661  0.15181  0.75976
E37   E   0.79661  0.64480  0.40691
E38   E   0.83100  0.16900  0.91666
E39   E   0.83100  0.16900  0.91667
E40   E   0.83100  0.66200  0.25000
E41   E   0.83100  0.66200  0.25000
E42   E   0.84819  0.20339  0.07357
E43   E   0.84819  0.34819  0.16666
E44   E   0.84819  0.50000  0.00000
E45   E   0.84819  0.64480  0.09309
E46   E   0.96562  0.48281  0.58333
E47   E   0.96562  0.48281  0.58333
loop_
