data_wkj_P6222  hall_number: 474, V_con: 6
_audit_creation_date              2025-03-05
_audit_creation_method            'MOFbuilder_1.0'
_symmetry_space_group_name_H-M    'P1'
_symmetry_Int_Tables_number       1
_symmetry_cell_setting            triclinic
loop_
_symmetry_equiv_pos_as_xyz
  x,y,z
_cell_length_a                    38.7553
_cell_length_b                    38.7553
_cell_length_c                    14.1419
_cell_angle_alpha                 90.0
_cell_angle_beta                  90.0
_cell_angle_gamma                 120.0
loop_
_atom_site_label
_atom_site_type_symbol
_atom_site_fract_x
_atom_site_fract_y
_atom_site_fract_z
V1    V   0.10534  0.46144  0.41667
V2    V   0.10534  0.64390  0.91667
V3    V   0.35610  0.46144  0.58333
V4    V   0.35610  0.89466  0.75000
V5    V   0.46144  0.10534  0.25000
V6    V   0.46144  0.35610  0.08333
V7    V   0.53856  0.64390  0.08333
V8    V   0.53856  0.89466  0.25000
V9    V   0.64390  0.10534  0.75000
V10   V   0.64390  0.53856  0.58333
V11   V   0.89466  0.35610  0.91667
V12   V   0.89466  0.53856  0.41667
E1    E   0.00000  0.40877  0.16667
E2    E   0.00000  0.40877  0.16667
E3    E   0.00000  0.40877  0.66667
E4    E   0.00000  0.50000  0.41667
E5    E   0.00000  0.50000  0.91667
E6    E   0.00000  0.59123  0.16667
E7    E   0.00000  0.59123  0.16667
E8    E   0.00000  0.59123  0.66667
E9    E   0.10534  0.55267  0.16667
E10   E   0.10534  0.55267  0.16667
E11   E   0.10534  0.55267  0.66667
E12   E   0.23072  0.46144  0.50000
E13   E   0.23072  0.46144  0.50000
E14   E   0.23072  0.76928  0.83333
E15   E   0.23072  0.76928  0.83334
E16   E   0.40877  0.00000  0.00000
E17   E   0.40877  0.00000  0.50000
E18   E   0.40877  0.40877  0.33333
E19   E   0.40877  0.40877  0.83333
E20   E   0.44733  0.55267  0.33333
E21   E   0.44733  0.55267  0.83333
E22   E   0.44733  0.89466  0.00000
E23   E   0.44733  0.89466  0.50000
E24   E   0.46144  0.23072  0.16666
E25   E   0.46144  0.23072  0.16667
E26   E   0.50000  0.00000  0.25000
E27   E   0.50000  0.00000  0.75000
E28   E   0.50000  0.50000  0.08333
E29   E   0.50000  0.50000  0.58333
E30   E   0.53856  0.76928  0.16666
E31   E   0.53856  0.76928  0.16667
E32   E   0.55267  0.10534  0.00000
E33   E   0.55267  0.10534  0.50000
E34   E   0.55267  0.44733  0.33333
E35   E   0.55267  0.44733  0.83333
E36   E   0.59123  0.00000  0.00000
E37   E   0.59123  0.00000  0.50000
E38   E   0.59123  0.59123  0.33333
E39   E   0.59123  0.59123  0.83333
E40   E   0.76928  0.23072  0.83333
E41   E   0.76928  0.23072  0.83334
E42   E   0.76928  0.53856  0.50000
E43   E   0.76928  0.53856  0.50000
E44   E   0.89466  0.44733  0.16667
E45   E   0.89466  0.44733  0.16667
E46   E   0.89466  0.44733  0.66667
loop_
