data_wld_P-3c1  hall_number: 457, V_con: 5
_audit_creation_date              2025-03-05
_audit_creation_method            'MOFbuilder_1.0'
_symmetry_space_group_name_H-M    'P1'
_symmetry_Int_Tables_number       1
_symmetry_cell_setting            triclinic
loop_
_symmetry_equiv_pos_as_xyz
  x,y,z
_cell_length_a                    23.5432
_cell_length_b                    23.5432
_cell_length_c                    28.4633
_cell_angle_alpha                 90.0
_cell_angle_beta                  90.0
_cell_angle_gamma                 120.0
loop_
_atom_site_label
_atom_site_type_symbol
_atom_site_fract_x
_atom_site_fract_y
_atom_site_fract_z
V1    V   0.11842  0.39954  0.90383
V2    V   0.11842  0.71888  0.40383
V3    V   0.28112  0.39954  0.40383
V4    V   0.28112  0.88158  0.90383
V5    V   0.39954  0.11842  0.59617
V6    V   0.39954  0.28112  0.09617
V7    V   0.60046  0.71888  0.90383
V8    V   0.60046  0.88158  0.40383
V9    V   0.71888  0.11842  0.09617
V10   V   0.71888  0.60046  0.59617
V11   V   0.88158  0.28112  0.59617
V12   V   0.88158  0.60046  0.09617
E1    E   0.00000  0.34033  0.75000
E2    E   0.00000  0.65967  0.25000
E3    E   0.08136  0.34033  0.50000
E4    E   0.08136  0.74103  0.00000
E5    E   0.19977  0.55921  0.40383
E6    E   0.19977  0.64056  0.90383
E7    E   0.25897  0.34033  0.00000
E8    E   0.25897  0.91864  0.50000
E9    E   0.34033  0.00000  0.75000
E10   E   0.34033  0.08136  0.00000
E11   E   0.34033  0.25897  0.50000
E12   E   0.34033  0.34033  0.25000
E13   E   0.35944  0.55921  0.90383
E14   E   0.35944  0.80023  0.40383
E15   E   0.44079  0.64056  0.40383
E16   E   0.44079  0.80023  0.90383
E17   E   0.55921  0.19977  0.09617
E18   E   0.55921  0.35944  0.59617
E19   E   0.64056  0.19977  0.59617
E20   E   0.64056  0.44079  0.09617
E21   E   0.65967  0.00000  0.25000
E22   E   0.65967  0.65967  0.75000
E23   E   0.65967  0.74103  0.50000
E24   E   0.65967  0.91864  0.00000
E25   E   0.74103  0.08136  0.50000
E26   E   0.74103  0.65967  0.00000
E27   E   0.80023  0.35944  0.09617
E28   E   0.80023  0.44079  0.59617
E29   E   0.91864  0.25897  0.00000
E30   E   0.91864  0.65967  0.50000
loop_
