data_wme_P6322  hall_number: 476, V_con: 6
_audit_creation_date              2025-03-05
_audit_creation_method            'MOFbuilder_1.0'
_symmetry_space_group_name_H-M    'P1'
_symmetry_Int_Tables_number       1
_symmetry_cell_setting            triclinic
loop_
_symmetry_equiv_pos_as_xyz
  x,y,z
_cell_length_a                    19.881
_cell_length_b                    19.881
_cell_length_c                    37.5477
_cell_angle_alpha                 90.0
_cell_angle_beta                  90.0
_cell_angle_gamma                 120.0
loop_
_atom_site_label
_atom_site_type_symbol
_atom_site_fract_x
_atom_site_fract_y
_atom_site_fract_z
V1    V   0.13503  0.33333  0.38211
V2    V   0.13503  0.80170  0.11789
V3    V   0.19830  0.33333  0.11789
V4    V   0.19830  0.86497  0.38211
V5    V   0.33333  0.13503  0.61789
V6    V   0.33333  0.19830  0.88211
V7    V   0.66667  0.80170  0.38211
V8    V   0.66667  0.86497  0.11789
V9    V   0.80170  0.13503  0.88211
V10   V   0.80170  0.66667  0.61789
V11   V   0.86497  0.19830  0.61789
V12   V   0.86497  0.66667  0.88211
E1    E   0.00000  0.26582  0.50000
E2    E   0.00000  0.73418  0.00000
E3    E   0.06752  0.16667  0.88211
E4    E   0.06752  0.90085  0.61789
E5    E   0.09915  0.16667  0.61789
E6    E   0.09915  0.93248  0.88211
E7    E   0.16666  0.33333  0.25000
E8    E   0.16666  0.83333  0.25000
E9    E   0.16667  0.06752  0.11789
E10   E   0.16667  0.09915  0.38211
E11   E   0.16667  0.33333  0.25000
E12   E   0.16667  0.56752  0.11789
E13   E   0.16667  0.59915  0.38211
E14   E   0.16667  0.83334  0.25000
E15   E   0.26582  0.00000  0.50000
E16   E   0.26582  0.26582  0.00000
E17   E   0.33333  0.16666  0.75000
E18   E   0.33333  0.16667  0.75000
E19   E   0.40085  0.56752  0.38211
E20   E   0.40085  0.83333  0.11789
E21   E   0.43248  0.59915  0.11789
E22   E   0.43248  0.83333  0.38211
E23   E   0.56752  0.16667  0.88211
E24   E   0.56752  0.40085  0.61789
E25   E   0.59915  0.16667  0.61789
E26   E   0.59915  0.43248  0.88211
E27   E   0.66667  0.83333  0.25000
E28   E   0.66667  0.83334  0.25000
E29   E   0.73418  0.00000  0.00000
E30   E   0.73418  0.73418  0.50000
E31   E   0.83333  0.16666  0.75000
E32   E   0.83333  0.40085  0.88211
E33   E   0.83333  0.43248  0.61789
E34   E   0.83333  0.66667  0.75000
E35   E   0.83333  0.90085  0.88211
E36   E   0.83333  0.93248  0.61789
E37   E   0.83334  0.16667  0.75000
E38   E   0.83334  0.66667  0.75000
E39   E   0.90085  0.06752  0.38211
E40   E   0.90085  0.83333  0.11789
E41   E   0.93248  0.09915  0.11789
E42   E   0.93248  0.83333  0.38211
loop_
