data_wnx_R-3c:H  hall_number: 167, V_con: 7
_audit_creation_date              2025-03-05
_audit_creation_method            'MOFbuilder_1.0'
_symmetry_space_group_name_H-M    'P1'
_symmetry_Int_Tables_number       1
_symmetry_cell_setting            triclinic
loop_
_symmetry_equiv_pos_as_xyz
  x,y,z
_cell_length_a                    32.6677
_cell_length_b                    32.6677
_cell_length_c                    36.0679
_cell_angle_alpha                 90.0
_cell_angle_beta                  90.0
_cell_angle_gamma                 120.0
loop_
_atom_site_label
_atom_site_type_symbol
_atom_site_fract_x
_atom_site_fract_y
_atom_site_fract_z
V1    V   0.18926  0.16075  0.11319
V2    V   0.18926  0.33925  0.61319
V3    V   0.68926  0.66075  0.38681
V4    V   0.68926  0.83925  0.88681
E1    E   0.01425  0.09463  0.11319
E2    E   0.01425  0.40537  0.61319
E3    E   0.17500  0.06612  0.00000
E4    E   0.17500  0.17500  0.25000
E5    E   0.17500  0.32500  0.75000
E6    E   0.17500  0.43388  0.50000
E7    E   0.27555  0.16667  0.58333
E8    E   0.27555  0.33333  0.08333
E9    E   0.33333  0.16667  0.16667
E10   E   0.33333  0.33333  0.66667
E11   E   0.51425  0.59463  0.38681
E12   E   0.51425  0.90537  0.88681
E13   E   0.67500  0.56612  0.50000
E14   E   0.67500  0.67500  0.25000
E15   E   0.67500  0.82500  0.75000
E16   E   0.67500  0.93388  0.00000
E17   E   0.77555  0.66667  0.91667
E18   E   0.77555  0.83333  0.41667
E19   E   0.83333  0.66667  0.33333
E20   E   0.83333  0.83333  0.83333
loop_
