data_wpa_Im-3m  hall_number: 529, V_con: 5, EC_con: 4
_audit_creation_date              2025-03-05
_audit_creation_method            'MOFbuilder_1.0'
_symmetry_space_group_name_H-M    'P1'
_symmetry_Int_Tables_number       1
_symmetry_cell_setting            triclinic
loop_
_symmetry_equiv_pos_as_xyz
  x,y,z
_cell_length_a                    77.2491
_cell_length_b                    77.2491
_cell_length_c                    77.2491
_cell_angle_alpha                 90.0
_cell_angle_beta                  90.0
_cell_angle_gamma                 90.0
loop_
_atom_site_label
_atom_site_type_symbol
_atom_site_fract_x
_atom_site_fract_y
_atom_site_fract_z
V1    V   0.06473  0.06473  0.43527
V2    V   0.06473  0.06473  0.56473
V3    V   0.06473  0.43527  0.06473
V4    V   0.06473  0.43527  0.93527
V5    V   0.06473  0.56473  0.06473
V6    V   0.06473  0.56473  0.93527
V7    V   0.06473  0.93527  0.43527
V8    V   0.06473  0.93527  0.56473
V9    V   0.06473  0.43527  0.43527
V10   V   0.06473  0.43527  0.56473
V11   V   0.06473  0.56473  0.43527
V12   V   0.06473  0.56473  0.56473
V13   V   0.43527  0.06473  0.06473
V14   V   0.43527  0.06473  0.93527
V15   V   0.43527  0.06473  0.43527
V16   V   0.43527  0.06473  0.56473
V17   V   0.43527  0.43527  0.06473
V18   V   0.43527  0.43527  0.93527
V19   V   0.43527  0.56473  0.06473
V20   V   0.43527  0.56473  0.93527
V21   V   0.43527  0.93527  0.06473
V22   V   0.43527  0.93527  0.43527
V23   V   0.43527  0.93527  0.56473
V24   V   0.43527  0.93527  0.93527
V25   V   0.56473  0.06473  0.06473
V26   V   0.56473  0.06473  0.93527
V27   V   0.56473  0.06473  0.43527
V28   V   0.56473  0.06473  0.56473
V29   V   0.56473  0.43527  0.06473
V30   V   0.56473  0.43527  0.93527
V31   V   0.56473  0.56473  0.06473
V32   V   0.56473  0.56473  0.93527
V33   V   0.56473  0.93527  0.06473
V34   V   0.56473  0.93527  0.43527
V35   V   0.56473  0.93527  0.56473
V36   V   0.56473  0.93527  0.93527
V37   V   0.93527  0.06473  0.43527
V38   V   0.93527  0.06473  0.56473
V39   V   0.93527  0.43527  0.06473
V40   V   0.93527  0.43527  0.43527
V41   V   0.93527  0.43527  0.56473
V42   V   0.93527  0.43527  0.93527
V43   V   0.93527  0.56473  0.06473
V44   V   0.93527  0.56473  0.43527
V45   V   0.93527  0.56473  0.56473
V46   V   0.93527  0.56473  0.93527
V47   V   0.93527  0.93527  0.43527
V48   V   0.93527  0.93527  0.56473
EC1    EC   0.06473  0.31023  0.40177
EC2    EC   0.06473  0.31023  0.59823
EC3    EC   0.06473  0.40177  0.31023
EC4    EC   0.06473  0.40177  0.68977
EC5    EC   0.06473  0.59823  0.31023
EC6    EC   0.06473  0.59823  0.68977
EC7    EC   0.06473  0.68977  0.40177
EC8    EC   0.06473  0.68977  0.59823
EC9    EC   0.09823  0.18977  0.43527
EC10   EC   0.09823  0.18977  0.56473
EC11   EC   0.09823  0.43527  0.18977
EC12   EC   0.09823  0.43527  0.81023
EC13   EC   0.09823  0.56473  0.18977
EC14   EC   0.09823  0.56473  0.81023
EC15   EC   0.09823  0.81023  0.43527
EC16   EC   0.09823  0.81023  0.56473
EC17   EC   0.18977  0.09823  0.43527
EC18   EC   0.18977  0.09823  0.56473
EC19   EC   0.18977  0.43527  0.09823
EC20   EC   0.18977  0.43527  0.90177
EC21   EC   0.18977  0.56473  0.09823
EC22   EC   0.18977  0.56473  0.90177
EC23   EC   0.18977  0.90177  0.43527
EC24   EC   0.18977  0.90177  0.56473
EC25   EC   0.31023  0.06473  0.40177
EC26   EC   0.31023  0.06473  0.59823
EC27   EC   0.31023  0.40177  0.06473
EC28   EC   0.31023  0.40177  0.93527
EC29   EC   0.31023  0.59823  0.06473
EC30   EC   0.31023  0.59823  0.93527
EC31   EC   0.31023  0.93527  0.40177
EC32   EC   0.31023  0.93527  0.59823
EC33   EC   0.40177  0.06473  0.31023
EC34   EC   0.40177  0.06473  0.68977
EC35   EC   0.40177  0.31023  0.06473
EC36   EC   0.40177  0.31023  0.93527
EC37   EC   0.40177  0.68977  0.06473
EC38   EC   0.40177  0.68977  0.93527
EC39   EC   0.40177  0.93527  0.31023
EC40   EC   0.40177  0.93527  0.68977
EC41   EC   0.43527  0.09823  0.18977
EC42   EC   0.43527  0.09823  0.81023
EC43   EC   0.43527  0.18977  0.09823
EC44   EC   0.43527  0.18977  0.90177
EC45   EC   0.43527  0.81023  0.09823
EC46   EC   0.43527  0.81023  0.90177
EC47   EC   0.43527  0.90177  0.18977
EC48   EC   0.43527  0.90177  0.81023
EC49   EC   0.56473  0.09823  0.18977
EC50   EC   0.56473  0.09823  0.81023
EC51   EC   0.56473  0.18977  0.09823
EC52   EC   0.56473  0.18977  0.90177
EC53   EC   0.56473  0.81023  0.09823
EC54   EC   0.56473  0.81023  0.90177
EC55   EC   0.56473  0.90177  0.18977
EC56   EC   0.56473  0.90177  0.81023
EC57   EC   0.59823  0.06473  0.31023
EC58   EC   0.59823  0.06473  0.68977
EC59   EC   0.59823  0.31023  0.06473
EC60   EC   0.59823  0.31023  0.93527
EC61   EC   0.59823  0.68977  0.06473
EC62   EC   0.59823  0.68977  0.93527
EC63   EC   0.59823  0.93527  0.31023
EC64   EC   0.59823  0.93527  0.68977
EC65   EC   0.68977  0.06473  0.40177
EC66   EC   0.68977  0.06473  0.59823
EC67   EC   0.68977  0.40177  0.06473
EC68   EC   0.68977  0.40177  0.93527
EC69   EC   0.68977  0.59823  0.06473
EC70   EC   0.68977  0.59823  0.93527
EC71   EC   0.68977  0.93527  0.40177
EC72   EC   0.68977  0.93527  0.59823
EC73   EC   0.81023  0.09823  0.43527
EC74   EC   0.81023  0.09823  0.56473
EC75   EC   0.81023  0.43527  0.09823
EC76   EC   0.81023  0.43527  0.90177
EC77   EC   0.81023  0.56473  0.09823
EC78   EC   0.81023  0.56473  0.90177
EC79   EC   0.81023  0.90177  0.43527
EC80   EC   0.81023  0.90177  0.56473
EC81   EC   0.90177  0.18977  0.43527
EC82   EC   0.90177  0.18977  0.56473
EC83   EC   0.90177  0.43527  0.18977
EC84   EC   0.90177  0.43527  0.81023
EC85   EC   0.90177  0.56473  0.18977
EC86   EC   0.90177  0.56473  0.81023
EC87   EC   0.90177  0.81023  0.43527
EC88   EC   0.90177  0.81023  0.56473
EC89   EC   0.93527  0.31023  0.40177
EC90   EC   0.93527  0.31023  0.59823
EC91   EC   0.93527  0.40177  0.31023
EC92   EC   0.93527  0.40177  0.68977
EC93   EC   0.93527  0.59823  0.31023
EC94   EC   0.93527  0.59823  0.68977
EC95   EC   0.93527  0.68977  0.40177
EC96   EC   0.93527  0.68977  0.59823
E1    E   0.00000  0.06473  0.43527
E2    E   0.00000  0.06473  0.56473
E3    E   0.00000  0.31023  0.40177
E4    E   0.00000  0.31023  0.59823
E5    E   0.00000  0.40177  0.31023
E6    E   0.00000  0.40177  0.68977
E7    E   0.00000  0.43527  0.06473
E8    E   0.00000  0.43527  0.43527
E9    E   0.00000  0.43527  0.56473
E10   E   0.00000  0.43527  0.93527
E11   E   0.00000  0.56473  0.06473
E12   E   0.00000  0.56473  0.43527
E13   E   0.00000  0.56473  0.56473
E14   E   0.00000  0.56473  0.93527
E15   E   0.00000  0.59823  0.31023
E16   E   0.00000  0.59823  0.68977
E17   E   0.00000  0.68977  0.40177
E18   E   0.00000  0.68977  0.59823
E19   E   0.00000  0.93527  0.43527
E20   E   0.00000  0.93527  0.56473
E21   E   0.06473  0.00000  0.43527
E22   E   0.06473  0.00000  0.56473
E23   E   0.06473  0.06473  0.50000
E24   E   0.06473  0.43527  0.00000
E25   E   0.06473  0.50000  0.06473
E26   E   0.06473  0.50000  0.93527
E27   E   0.06473  0.56473  0.00000
E28   E   0.06473  0.93527  0.50000
E29   E   0.06473  0.35600  0.35600
E30   E   0.06473  0.35600  0.64400
E31   E   0.06473  0.37275  0.41852
E32   E   0.06473  0.37275  0.58148
E33   E   0.06473  0.41852  0.37275
E34   E   0.06473  0.41852  0.62725
E35   E   0.06473  0.43527  0.50000
E36   E   0.06473  0.50000  0.43527
E37   E   0.06473  0.50000  0.56473
E38   E   0.06473  0.56473  0.50000
E39   E   0.06473  0.58148  0.37275
E40   E   0.06473  0.58148  0.62725
E41   E   0.06473  0.62725  0.41852
E42   E   0.06473  0.62725  0.58148
E43   E   0.06473  0.64400  0.35600
E44   E   0.06473  0.64400  0.64400
E45   E   0.08148  0.12725  0.43527
E46   E   0.08148  0.12725  0.56473
E47   E   0.08148  0.25000  0.41852
E48   E   0.08148  0.25000  0.58148
E49   E   0.08148  0.41852  0.25000
E50   E   0.08148  0.41852  0.75000
E51   E   0.08148  0.43527  0.12725
E52   E   0.08148  0.43527  0.87275
E53   E   0.08148  0.56473  0.12725
E54   E   0.08148  0.56473  0.87275
E55   E   0.08148  0.58148  0.25000
E56   E   0.08148  0.58148  0.75000
E57   E   0.08148  0.75000  0.41852
E58   E   0.08148  0.75000  0.58148
E59   E   0.08148  0.87275  0.43527
E60   E   0.08148  0.87275  0.56473
E61   E   0.09823  0.18977  0.50000
E62   E   0.09823  0.50000  0.18977
E63   E   0.09823  0.50000  0.81023
E64   E   0.09823  0.81023  0.50000
E65   E   0.12725  0.08148  0.43527
E66   E   0.12725  0.08148  0.56473
E67   E   0.12725  0.43527  0.08148
E68   E   0.12725  0.43527  0.91852
E69   E   0.12725  0.56473  0.08148
E70   E   0.12725  0.56473  0.91852
E71   E   0.12725  0.91852  0.43527
E72   E   0.12725  0.91852  0.56473
E73   E   0.14400  0.14400  0.43527
E74   E   0.14400  0.14400  0.56473
E75   E   0.14400  0.43527  0.14400
E76   E   0.14400  0.43527  0.85600
E77   E   0.14400  0.56473  0.14400
E78   E   0.14400  0.56473  0.85600
E79   E   0.14400  0.85600  0.43527
E80   E   0.14400  0.85600  0.56473
E81   E   0.18977  0.09823  0.50000
E82   E   0.18977  0.50000  0.09823
E83   E   0.18977  0.50000  0.90177
E84   E   0.18977  0.90177  0.50000
E85   E   0.25000  0.08148  0.41852
E86   E   0.25000  0.08148  0.58148
E87   E   0.25000  0.41852  0.08148
E88   E   0.25000  0.41852  0.91852
E89   E   0.25000  0.58148  0.08148
E90   E   0.25000  0.58148  0.91852
E91   E   0.25000  0.91852  0.41852
E92   E   0.25000  0.91852  0.58148
E93   E   0.31023  0.00000  0.40177
E94   E   0.31023  0.00000  0.59823
E95   E   0.31023  0.40177  0.00000
E96   E   0.31023  0.59823  0.00000
E97   E   0.35600  0.06473  0.35600
E98   E   0.35600  0.06473  0.64400
E99   E   0.35600  0.35600  0.06473
E100  E   0.35600  0.35600  0.93527
E101  E   0.35600  0.64400  0.06473
E102  E   0.35600  0.64400  0.93527
E103  E   0.35600  0.93527  0.35600
E104  E   0.35600  0.93527  0.64400
E105  E   0.37275  0.06473  0.41852
E106  E   0.37275  0.06473  0.58148
E107  E   0.37275  0.41852  0.06473
E108  E   0.37275  0.41852  0.93527
E109  E   0.37275  0.58148  0.06473
E110  E   0.37275  0.58148  0.93527
E111  E   0.37275  0.93527  0.41852
E112  E   0.37275  0.93527  0.58148
E113  E   0.40177  0.00000  0.31023
E114  E   0.40177  0.00000  0.68977
E115  E   0.40177  0.31023  0.00000
E116  E   0.40177  0.68977  0.00000
E117  E   0.41852  0.06473  0.37275
E118  E   0.41852  0.06473  0.62725
E119  E   0.41852  0.08148  0.25000
E120  E   0.41852  0.08148  0.75000
E121  E   0.41852  0.25000  0.08148
E122  E   0.41852  0.25000  0.91852
E123  E   0.41852  0.37275  0.06473
E124  E   0.41852  0.37275  0.93527
E125  E   0.41852  0.62725  0.06473
E126  E   0.41852  0.62725  0.93527
E127  E   0.41852  0.75000  0.08148
E128  E   0.41852  0.75000  0.91852
E129  E   0.41852  0.91852  0.25000
E130  E   0.41852  0.91852  0.75000
E131  E   0.41852  0.93527  0.37275
E132  E   0.41852  0.93527  0.62725
E133  E   0.43527  0.00000  0.06473
E134  E   0.43527  0.00000  0.43527
E135  E   0.43527  0.00000  0.56473
E136  E   0.43527  0.00000  0.93527
E137  E   0.43527  0.06473  0.00000
E138  E   0.43527  0.06473  0.50000
E139  E   0.43527  0.08148  0.12725
E140  E   0.43527  0.08148  0.87275
E141  E   0.43527  0.12725  0.08148
E142  E   0.43527  0.12725  0.91852
E143  E   0.43527  0.14400  0.14400
E144  E   0.43527  0.14400  0.85600
E145  E   0.43527  0.43527  0.00000
E146  E   0.43527  0.50000  0.06473
E147  E   0.43527  0.50000  0.93527
E148  E   0.43527  0.56473  0.00000
E149  E   0.43527  0.85600  0.14400
E150  E   0.43527  0.85600  0.85600
E151  E   0.43527  0.87275  0.08148
E152  E   0.43527  0.87275  0.91852
E153  E   0.43527  0.91852  0.12725
E154  E   0.43527  0.91852  0.87275
E155  E   0.43527  0.93527  0.00000
E156  E   0.43527  0.93527  0.50000
E157  E   0.50000  0.06473  0.06473
E158  E   0.50000  0.06473  0.93527
E159  E   0.50000  0.06473  0.43527
E160  E   0.50000  0.06473  0.56473
E161  E   0.50000  0.09823  0.18977
E162  E   0.50000  0.09823  0.81023
E163  E   0.50000  0.18977  0.09823
E164  E   0.50000  0.18977  0.90177
E165  E   0.50000  0.43527  0.06473
E166  E   0.50000  0.43527  0.93527
E167  E   0.50000  0.56473  0.06473
E168  E   0.50000  0.56473  0.93527
E169  E   0.50000  0.81023  0.09823
E170  E   0.50000  0.81023  0.90177
E171  E   0.50000  0.90177  0.18977
E172  E   0.50000  0.90177  0.81023
E173  E   0.50000  0.93527  0.06473
E174  E   0.50000  0.93527  0.43527
E175  E   0.50000  0.93527  0.56473
E176  E   0.50000  0.93527  0.93527
E177  E   0.56473  0.00000  0.06473
E178  E   0.56473  0.00000  0.43527
E179  E   0.56473  0.00000  0.56473
E180  E   0.56473  0.00000  0.93527
E181  E   0.56473  0.06473  0.00000
E182  E   0.56473  0.06473  0.50000
E183  E   0.56473  0.08148  0.12725
E184  E   0.56473  0.08148  0.87275
E185  E   0.56473  0.12725  0.08148
E186  E   0.56473  0.12725  0.91852
E187  E   0.56473  0.14400  0.14400
E188  E   0.56473  0.14400  0.85600
E189  E   0.56473  0.43527  0.00000
E190  E   0.56473  0.50000  0.06473
E191  E   0.56473  0.50000  0.93527
E192  E   0.56473  0.56473  0.00000
E193  E   0.56473  0.85600  0.14400
E194  E   0.56473  0.85600  0.85600
E195  E   0.56473  0.87275  0.08148
E196  E   0.56473  0.87275  0.91852
E197  E   0.56473  0.91852  0.12725
E198  E   0.56473  0.91852  0.87275
E199  E   0.56473  0.93527  0.00000
E200  E   0.56473  0.93527  0.50000
E201  E   0.58148  0.06473  0.37275
E202  E   0.58148  0.06473  0.62725
E203  E   0.58148  0.08148  0.25000
E204  E   0.58148  0.08148  0.75000
E205  E   0.58148  0.25000  0.08148
E206  E   0.58148  0.25000  0.91852
E207  E   0.58148  0.37275  0.06473
E208  E   0.58148  0.37275  0.93527
E209  E   0.58148  0.62725  0.06473
E210  E   0.58148  0.62725  0.93527
E211  E   0.58148  0.75000  0.08148
E212  E   0.58148  0.75000  0.91852
E213  E   0.58148  0.91852  0.25000
E214  E   0.58148  0.91852  0.75000
E215  E   0.58148  0.93527  0.37275
E216  E   0.58148  0.93527  0.62725
E217  E   0.59823  0.00000  0.31023
E218  E   0.59823  0.00000  0.68977
E219  E   0.59823  0.31023  0.00000
E220  E   0.59823  0.68977  0.00000
E221  E   0.62725  0.06473  0.41852
E222  E   0.62725  0.06473  0.58148
E223  E   0.62725  0.41852  0.06473
E224  E   0.62725  0.41852  0.93527
E225  E   0.62725  0.58148  0.06473
E226  E   0.62725  0.58148  0.93527
E227  E   0.62725  0.93527  0.41852
E228  E   0.62725  0.93527  0.58148
E229  E   0.64400  0.06473  0.35600
E230  E   0.64400  0.06473  0.64400
E231  E   0.64400  0.35600  0.06473
E232  E   0.64400  0.35600  0.93527
E233  E   0.64400  0.64400  0.06473
E234  E   0.64400  0.64400  0.93527
E235  E   0.64400  0.93527  0.35600
E236  E   0.64400  0.93527  0.64400
E237  E   0.68977  0.00000  0.40177
E238  E   0.68977  0.00000  0.59823
E239  E   0.68977  0.40177  0.00000
E240  E   0.68977  0.59823  0.00000
E241  E   0.75000  0.08148  0.41852
E242  E   0.75000  0.08148  0.58148
E243  E   0.75000  0.41852  0.08148
E244  E   0.75000  0.41852  0.91852
E245  E   0.75000  0.58148  0.08148
E246  E   0.75000  0.58148  0.91852
E247  E   0.75000  0.91852  0.41852
E248  E   0.75000  0.91852  0.58148
E249  E   0.81023  0.09823  0.50000
E250  E   0.81023  0.50000  0.09823
E251  E   0.81023  0.50000  0.90177
E252  E   0.81023  0.90177  0.50000
E253  E   0.85600  0.14400  0.43527
E254  E   0.85600  0.14400  0.56473
E255  E   0.85600  0.43527  0.14400
E256  E   0.85600  0.43527  0.85600
E257  E   0.85600  0.56473  0.14400
E258  E   0.85600  0.56473  0.85600
E259  E   0.85600  0.85600  0.43527
E260  E   0.85600  0.85600  0.56473
E261  E   0.87275  0.08148  0.43527
E262  E   0.87275  0.08148  0.56473
E263  E   0.87275  0.43527  0.08148
E264  E   0.87275  0.43527  0.91852
E265  E   0.87275  0.56473  0.08148
E266  E   0.87275  0.56473  0.91852
E267  E   0.87275  0.91852  0.43527
E268  E   0.87275  0.91852  0.56473
E269  E   0.90177  0.18977  0.50000
E270  E   0.90177  0.50000  0.18977
E271  E   0.90177  0.50000  0.81023
E272  E   0.90177  0.81023  0.50000
E273  E   0.91852  0.12725  0.43527
E274  E   0.91852  0.12725  0.56473
E275  E   0.91852  0.25000  0.41852
E276  E   0.91852  0.25000  0.58148
E277  E   0.91852  0.41852  0.25000
E278  E   0.91852  0.41852  0.75000
E279  E   0.91852  0.43527  0.12725
E280  E   0.91852  0.43527  0.87275
E281  E   0.91852  0.56473  0.12725
E282  E   0.91852  0.56473  0.87275
E283  E   0.91852  0.58148  0.25000
E284  E   0.91852  0.58148  0.75000
E285  E   0.91852  0.75000  0.41852
E286  E   0.91852  0.75000  0.58148
E287  E   0.91852  0.87275  0.43527
E288  E   0.91852  0.87275  0.56473
E289  E   0.93527  0.00000  0.43527
E290  E   0.93527  0.00000  0.56473
E291  E   0.93527  0.06473  0.50000
E292  E   0.93527  0.35600  0.35600
E293  E   0.93527  0.35600  0.64400
E294  E   0.93527  0.37275  0.41852
E295  E   0.93527  0.37275  0.58148
E296  E   0.93527  0.41852  0.37275
E297  E   0.93527  0.41852  0.62725
E298  E   0.93527  0.43527  0.00000
E299  E   0.93527  0.43527  0.50000
E300  E   0.93527  0.50000  0.06473
E301  E   0.93527  0.50000  0.43527
E302  E   0.93527  0.50000  0.56473
E303  E   0.93527  0.50000  0.93527
E304  E   0.93527  0.56473  0.00000
E305  E   0.93527  0.56473  0.50000
E306  E   0.93527  0.58148  0.37275
E307  E   0.93527  0.58148  0.62725
E308  E   0.93527  0.62725  0.41852
E309  E   0.93527  0.62725  0.58148
E310  E   0.93527  0.64400  0.35600
E311  E   0.93527  0.64400  0.64400
E312  E   0.93527  0.93527  0.50000
loop_
