data_wyt_R3m:H  hall_number: 160, V_con: 9, EC_con: 3
_audit_creation_date              2025-03-05
_audit_creation_method            'MOFbuilder_1.0'
_symmetry_space_group_name_H-M    'P1'
_symmetry_Int_Tables_number       1
_symmetry_cell_setting            triclinic
loop_
_symmetry_equiv_pos_as_xyz
  x,y,z
_cell_length_a                    18.4228
_cell_length_b                    18.4228
_cell_length_c                    38.517
_cell_angle_alpha                 90.0
_cell_angle_beta                  90.0
_cell_angle_gamma                 120.0
loop_
_atom_site_label
_atom_site_type_symbol
_atom_site_fract_x
_atom_site_fract_y
_atom_site_fract_z
V1    V   0.00000  0.00000  0.00000
V2    V   0.50000  0.50000  0.00000
EC1    EC   0.04707  0.59413  0.90618
EC2    EC   0.45293  0.09413  0.09382
EC3    EC   0.54707  0.09413  0.09382
EC4    EC   0.95293  0.59413  0.90618
E1    E   0.11960  0.05980  0.88024
E2    E   0.22647  0.54707  0.95309
E3    E   0.27353  0.04707  0.04691
E4    E   0.38040  0.55980  0.11976
E5    E   0.61960  0.55980  0.11976
E6    E   0.72647  0.04707  0.04691
E7    E   0.77353  0.54707  0.95309
E8    E   0.88040  0.05980  0.88024
loop_
