data_xaf_Im-3m  hall_number: 529, V_con: 6, EC_con: 5
_audit_creation_date              2025-03-05
_audit_creation_method            'MOFbuilder_1.0'
_symmetry_space_group_name_H-M    'P1'
_symmetry_Int_Tables_number       1
_symmetry_cell_setting            triclinic
loop_
_symmetry_equiv_pos_as_xyz
  x,y,z
_cell_length_a                    27.7485
_cell_length_b                    27.7485
_cell_length_c                    27.7485
_cell_angle_alpha                 90.0
_cell_angle_beta                  90.0
_cell_angle_gamma                 90.0
loop_
_atom_site_label
_atom_site_type_symbol
_atom_site_fract_x
_atom_site_fract_y
_atom_site_fract_z
V1    V   0.25000  0.25000  0.25000
V2    V   0.25000  0.25000  0.75000
V3    V   0.25000  0.75000  0.25000
V4    V   0.25000  0.75000  0.75000
V5    V   0.75000  0.25000  0.25000
V6    V   0.75000  0.25000  0.75000
V7    V   0.75000  0.75000  0.25000
V8    V   0.75000  0.75000  0.75000
EC1    EC   0.00000  0.00000  0.31981
EC2    EC   0.00000  0.00000  0.68019
EC3    EC   0.00000  0.31981  0.00000
EC4    EC   0.00000  0.68019  0.00000
EC5    EC   0.18019  0.50000  0.50000
EC6    EC   0.31981  0.00000  0.00000
EC7    EC   0.50000  0.18019  0.50000
EC8    EC   0.50000  0.50000  0.18019
EC9    EC   0.50000  0.50000  0.81981
EC10   EC   0.50000  0.81981  0.50000
EC11   EC   0.68019  0.00000  0.00000
EC12   EC   0.81981  0.50000  0.50000
E1    E   0.00000  0.00000  0.50000
E2    E   0.00000  0.50000  0.00000
E3    E   0.00000  0.50000  0.50000
E4    E   0.12500  0.12500  0.28491
E5    E   0.12500  0.12500  0.71509
E6    E   0.12500  0.28491  0.12500
E7    E   0.12500  0.28491  0.87500
E8    E   0.12500  0.71509  0.12500
E9    E   0.12500  0.71509  0.87500
E10   E   0.12500  0.87500  0.28491
E11   E   0.12500  0.87500  0.71509
E12   E   0.21509  0.37500  0.37500
E13   E   0.21509  0.37500  0.62500
E14   E   0.21509  0.62500  0.37500
E15   E   0.21509  0.62500  0.62500
E16   E   0.28491  0.12500  0.12500
E17   E   0.28491  0.12500  0.87500
E18   E   0.28491  0.87500  0.12500
E19   E   0.28491  0.87500  0.87500
E20   E   0.37500  0.21509  0.37500
E21   E   0.37500  0.21509  0.62500
E22   E   0.37500  0.37500  0.21509
E23   E   0.37500  0.37500  0.78491
E24   E   0.37500  0.62500  0.21509
E25   E   0.37500  0.62500  0.78491
E26   E   0.37500  0.78491  0.37500
E27   E   0.37500  0.78491  0.62500
E28   E   0.50000  0.00000  0.00000
E29   E   0.50000  0.00000  0.50000
E30   E   0.50000  0.50000  0.00000
E31   E   0.62500  0.21509  0.37500
E32   E   0.62500  0.21509  0.62500
E33   E   0.62500  0.37500  0.21509
E34   E   0.62500  0.37500  0.78491
E35   E   0.62500  0.62500  0.21509
E36   E   0.62500  0.62500  0.78491
E37   E   0.62500  0.78491  0.37500
E38   E   0.62500  0.78491  0.62500
E39   E   0.71509  0.12500  0.12500
E40   E   0.71509  0.12500  0.87500
E41   E   0.71509  0.87500  0.12500
E42   E   0.71509  0.87500  0.87500
E43   E   0.78491  0.37500  0.37500
E44   E   0.78491  0.37500  0.62500
E45   E   0.78491  0.62500  0.37500
E46   E   0.78491  0.62500  0.62500
E47   E   0.87500  0.12500  0.28491
E48   E   0.87500  0.12500  0.71509
E49   E   0.87500  0.28491  0.12500
E50   E   0.87500  0.28491  0.87500
E51   E   0.87500  0.71509  0.12500
E52   E   0.87500  0.71509  0.87500
E53   E   0.87500  0.87500  0.28491
E54   E   0.87500  0.87500  0.71509
loop_
