data_xam_Im-3m  hall_number: 529, V_con: 12, EC_con: 6
_audit_creation_date              2025-03-05
_audit_creation_method            'MOFbuilder_1.0'
_symmetry_space_group_name_H-M    'P1'
_symmetry_Int_Tables_number       1
_symmetry_cell_setting            triclinic
loop_
_symmetry_equiv_pos_as_xyz
  x,y,z
_cell_length_a                    22.4009
_cell_length_b                    22.4009
_cell_length_c                    22.4009
_cell_angle_alpha                 90.0
_cell_angle_beta                  90.0
_cell_angle_gamma                 90.0
loop_
_atom_site_label
_atom_site_type_symbol
_atom_site_fract_x
_atom_site_fract_y
_atom_site_fract_z
V1    V   0.00000  0.00000  0.50000
V2    V   0.00000  0.50000  0.00000
V3    V   0.00000  0.50000  0.50000
V4    V   0.50000  0.00000  0.00000
V5    V   0.50000  0.00000  0.50000
V6    V   0.50000  0.50000  0.00000
EC1    EC   0.25000  0.25000  0.25000
EC2    EC   0.25000  0.25000  0.75000
EC3    EC   0.25000  0.75000  0.25000
EC4    EC   0.25000  0.75000  0.75000
EC5    EC   0.75000  0.25000  0.25000
EC6    EC   0.75000  0.25000  0.75000
EC7    EC   0.75000  0.75000  0.25000
EC8    EC   0.75000  0.75000  0.75000
E1    E   0.00000  0.25000  0.50000
E2    E   0.00000  0.50000  0.25000
E3    E   0.00000  0.50000  0.75000
E4    E   0.00000  0.75000  0.50000
E5    E   0.12500  0.12500  0.37500
E6    E   0.12500  0.12500  0.62500
E7    E   0.12500  0.37500  0.12500
E8    E   0.12500  0.37500  0.37500
E9    E   0.12500  0.37500  0.62500
E10   E   0.12500  0.37500  0.87500
E11   E   0.12500  0.62500  0.12500
E12   E   0.12500  0.62500  0.37500
E13   E   0.12500  0.62500  0.62500
E14   E   0.12500  0.62500  0.87500
E15   E   0.12500  0.87500  0.37500
E16   E   0.12500  0.87500  0.62500
E17   E   0.25000  0.00000  0.50000
E18   E   0.25000  0.50000  0.00000
E19   E   0.37500  0.12500  0.12500
E20   E   0.37500  0.12500  0.37500
E21   E   0.37500  0.12500  0.62500
E22   E   0.37500  0.12500  0.87500
E23   E   0.37500  0.37500  0.12500
E24   E   0.37500  0.37500  0.87500
E25   E   0.37500  0.62500  0.12500
E26   E   0.37500  0.62500  0.87500
E27   E   0.37500  0.87500  0.12500
E28   E   0.37500  0.87500  0.37500
E29   E   0.37500  0.87500  0.62500
E30   E   0.37500  0.87500  0.87500
E31   E   0.50000  0.00000  0.25000
E32   E   0.50000  0.00000  0.75000
E33   E   0.50000  0.25000  0.00000
E34   E   0.50000  0.75000  0.00000
E35   E   0.62500  0.12500  0.12500
E36   E   0.62500  0.12500  0.37500
E37   E   0.62500  0.12500  0.62500
E38   E   0.62500  0.12500  0.87500
E39   E   0.62500  0.37500  0.12500
E40   E   0.62500  0.37500  0.87500
E41   E   0.62500  0.62500  0.12500
E42   E   0.62500  0.62500  0.87500
E43   E   0.62500  0.87500  0.12500
E44   E   0.62500  0.87500  0.37500
E45   E   0.62500  0.87500  0.62500
E46   E   0.62500  0.87500  0.87500
E47   E   0.75000  0.00000  0.50000
E48   E   0.75000  0.50000  0.00000
E49   E   0.87500  0.12500  0.37500
E50   E   0.87500  0.12500  0.62500
E51   E   0.87500  0.37500  0.12500
E52   E   0.87500  0.37500  0.37500
E53   E   0.87500  0.37500  0.62500
E54   E   0.87500  0.37500  0.87500
E55   E   0.87500  0.62500  0.12500
E56   E   0.87500  0.62500  0.37500
E57   E   0.87500  0.62500  0.62500
E58   E   0.87500  0.62500  0.87500
E59   E   0.87500  0.87500  0.37500
E60   E   0.87500  0.87500  0.62500
loop_
