data_xas_Fd-3m:2  hall_number: 526, V_con: 6, EC_con: 5
_audit_creation_date              2025-03-05
_audit_creation_method            'MOFbuilder_1.0'
_symmetry_space_group_name_H-M    'P1'
_symmetry_Int_Tables_number       1
_symmetry_cell_setting            triclinic
loop_
_symmetry_equiv_pos_as_xyz
  x,y,z
_cell_length_a                    40.0
_cell_length_b                    40.0
_cell_length_c                    40.0
_cell_angle_alpha                 90.0
_cell_angle_beta                  90.0
_cell_angle_gamma                 90.0
loop_
_atom_site_label
_atom_site_type_symbol
_atom_site_fract_x
_atom_site_fract_y
_atom_site_fract_z
V1    V   0.12500  0.12500  0.62500
V2    V   0.12500  0.62500  0.12500
V3    V   0.37500  0.37500  0.37500
V4    V   0.37500  0.87500  0.87500
V5    V   0.62500  0.12500  0.12500
V6    V   0.62500  0.62500  0.62500
V7    V   0.87500  0.37500  0.87500
V8    V   0.87500  0.87500  0.37500
EC1    EC   0.12500  0.12500  0.37500
EC2    EC   0.12500  0.12500  0.87500
EC3    EC   0.12500  0.37500  0.12500
EC4    EC   0.12500  0.37500  0.37500
EC5    EC   0.12500  0.37500  0.62500
EC6    EC   0.12500  0.37500  0.87500
EC7    EC   0.12500  0.62500  0.37500
EC8    EC   0.12500  0.62500  0.87500
EC9    EC   0.12500  0.87500  0.12500
EC10   EC   0.12500  0.87500  0.37500
EC11   EC   0.12500  0.87500  0.62500
EC12   EC   0.12500  0.87500  0.87500
EC13   EC   0.37500  0.12500  0.12500
EC14   EC   0.37500  0.12500  0.37500
EC15   EC   0.37500  0.12500  0.62500
EC16   EC   0.37500  0.12500  0.87500
EC17   EC   0.37500  0.37500  0.12500
EC18   EC   0.37500  0.37500  0.62500
EC19   EC   0.37500  0.62500  0.12500
EC20   EC   0.37500  0.62500  0.37500
EC21   EC   0.37500  0.62500  0.62500
EC22   EC   0.37500  0.62500  0.87500
EC23   EC   0.37500  0.87500  0.12500
EC24   EC   0.37500  0.87500  0.62500
EC25   EC   0.62500  0.12500  0.37500
EC26   EC   0.62500  0.12500  0.87500
EC27   EC   0.62500  0.37500  0.12500
EC28   EC   0.62500  0.37500  0.37500
EC29   EC   0.62500  0.37500  0.62500
EC30   EC   0.62500  0.37500  0.87500
EC31   EC   0.62500  0.62500  0.37500
EC32   EC   0.62500  0.62500  0.87500
EC33   EC   0.62500  0.87500  0.12500
EC34   EC   0.62500  0.87500  0.37500
EC35   EC   0.62500  0.87500  0.62500
EC36   EC   0.62500  0.87500  0.87500
EC37   EC   0.87500  0.12500  0.12500
EC38   EC   0.87500  0.12500  0.37500
EC39   EC   0.87500  0.12500  0.62500
EC40   EC   0.87500  0.12500  0.87500
EC41   EC   0.87500  0.37500  0.12500
EC42   EC   0.87500  0.37500  0.62500
EC43   EC   0.87500  0.62500  0.12500
EC44   EC   0.87500  0.62500  0.37500
EC45   EC   0.87500  0.62500  0.62500
EC46   EC   0.87500  0.62500  0.87500
EC47   EC   0.87500  0.87500  0.12500
EC48   EC   0.87500  0.87500  0.62500
E1    E   0.00000  0.12500  0.37500
E2    E   0.00000  0.12500  0.62500
E3    E   0.00000  0.12500  0.87500
E4    E   0.00000  0.37500  0.12500
E5    E   0.00000  0.37500  0.62500
E6    E   0.00000  0.37500  0.87500
E7    E   0.00000  0.62500  0.12500
E8    E   0.00000  0.62500  0.37500
E9    E   0.00000  0.62500  0.87500
E10   E   0.00000  0.87500  0.12500
E11   E   0.00000  0.87500  0.37500
E12   E   0.00000  0.87500  0.62500
E13   E   0.12500  0.00000  0.37500
E14   E   0.12500  0.00000  0.62500
E15   E   0.12500  0.00000  0.87500
E16   E   0.12500  0.12500  0.50000
E17   E   0.12500  0.12500  0.75000
E18   E   0.12500  0.25000  0.37500
E19   E   0.12500  0.25000  0.62500
E20   E   0.12500  0.25000  0.87500
E21   E   0.12500  0.37500  0.00000
E22   E   0.12500  0.37500  0.25000
E23   E   0.12500  0.37500  0.50000
E24   E   0.12500  0.37500  0.75000
E25   E   0.12500  0.50000  0.12500
E26   E   0.12500  0.50000  0.37500
E27   E   0.12500  0.50000  0.87500
E28   E   0.12500  0.62500  0.00000
E29   E   0.12500  0.62500  0.25000
E30   E   0.12500  0.75000  0.12500
E31   E   0.12500  0.75000  0.37500
E32   E   0.12500  0.75000  0.87500
E33   E   0.12500  0.87500  0.00000
E34   E   0.12500  0.87500  0.25000
E35   E   0.12500  0.87500  0.50000
E36   E   0.12500  0.87500  0.75000
E37   E   0.25000  0.12500  0.37500
E38   E   0.25000  0.12500  0.62500
E39   E   0.25000  0.12500  0.87500
E40   E   0.25000  0.37500  0.12500
E41   E   0.25000  0.37500  0.37500
E42   E   0.25000  0.37500  0.62500
E43   E   0.25000  0.62500  0.12500
E44   E   0.25000  0.62500  0.37500
E45   E   0.25000  0.62500  0.87500
E46   E   0.25000  0.87500  0.12500
E47   E   0.25000  0.87500  0.62500
E48   E   0.25000  0.87500  0.87500
E49   E   0.37500  0.00000  0.12500
E50   E   0.37500  0.00000  0.62500
E51   E   0.37500  0.00000  0.87500
E52   E   0.37500  0.12500  0.00000
E53   E   0.37500  0.12500  0.25000
E54   E   0.37500  0.12500  0.50000
E55   E   0.37500  0.12500  0.75000
E56   E   0.37500  0.25000  0.12500
E57   E   0.37500  0.25000  0.37500
E58   E   0.37500  0.25000  0.62500
E59   E   0.37500  0.37500  0.25000
E60   E   0.37500  0.37500  0.50000
E61   E   0.37500  0.50000  0.12500
E62   E   0.37500  0.50000  0.37500
E63   E   0.37500  0.50000  0.62500
E64   E   0.37500  0.62500  0.00000
E65   E   0.37500  0.62500  0.25000
E66   E   0.37500  0.62500  0.50000
E67   E   0.37500  0.62500  0.75000
E68   E   0.37500  0.75000  0.12500
E69   E   0.37500  0.75000  0.62500
E70   E   0.37500  0.75000  0.87500
E71   E   0.37500  0.87500  0.00000
E72   E   0.37500  0.87500  0.75000
E73   E   0.50000  0.12500  0.12500
E74   E   0.50000  0.12500  0.37500
E75   E   0.50000  0.12500  0.87500
E76   E   0.50000  0.37500  0.12500
E77   E   0.50000  0.37500  0.37500
E78   E   0.50000  0.37500  0.62500
E79   E   0.50000  0.62500  0.37500
E80   E   0.50000  0.62500  0.62500
E81   E   0.50000  0.62500  0.87500
E82   E   0.50000  0.87500  0.12500
E83   E   0.50000  0.87500  0.62500
E84   E   0.50000  0.87500  0.87500
E85   E   0.62500  0.00000  0.12500
E86   E   0.62500  0.00000  0.37500
E87   E   0.62500  0.00000  0.87500
E88   E   0.62500  0.12500  0.00000
E89   E   0.62500  0.12500  0.25000
E90   E   0.62500  0.25000  0.12500
E91   E   0.62500  0.25000  0.37500
E92   E   0.62500  0.25000  0.87500
E93   E   0.62500  0.37500  0.00000
E94   E   0.62500  0.37500  0.25000
E95   E   0.62500  0.37500  0.50000
E96   E   0.62500  0.37500  0.75000
E97   E   0.62500  0.50000  0.37500
E98   E   0.62500  0.50000  0.62500
E99   E   0.62500  0.50000  0.87500
E100  E   0.62500  0.62500  0.50000
E101  E   0.62500  0.62500  0.75000
E102  E   0.62500  0.75000  0.37500
E103  E   0.62500  0.75000  0.62500
E104  E   0.62500  0.75000  0.87500
E105  E   0.62500  0.87500  0.00000
E106  E   0.62500  0.87500  0.25000
E107  E   0.62500  0.87500  0.50000
E108  E   0.62500  0.87500  0.75000
E109  E   0.75000  0.12500  0.12500
E110  E   0.75000  0.12500  0.37500
E111  E   0.75000  0.12500  0.87500
E112  E   0.75000  0.37500  0.12500
E113  E   0.75000  0.37500  0.62500
E114  E   0.75000  0.37500  0.87500
E115  E   0.75000  0.62500  0.37500
E116  E   0.75000  0.62500  0.62500
E117  E   0.75000  0.62500  0.87500
E118  E   0.75000  0.87500  0.12500
E119  E   0.75000  0.87500  0.37500
E120  E   0.75000  0.87500  0.62500
E121  E   0.87500  0.00000  0.12500
E122  E   0.87500  0.00000  0.37500
E123  E   0.87500  0.00000  0.62500
E124  E   0.87500  0.12500  0.00000
E125  E   0.87500  0.12500  0.25000
E126  E   0.87500  0.12500  0.50000
E127  E   0.87500  0.12500  0.75000
E128  E   0.87500  0.25000  0.12500
E129  E   0.87500  0.25000  0.62500
E130  E   0.87500  0.25000  0.87500
E131  E   0.87500  0.37500  0.00000
E132  E   0.87500  0.37500  0.75000
E133  E   0.87500  0.50000  0.12500
E134  E   0.87500  0.50000  0.62500
E135  E   0.87500  0.50000  0.87500
E136  E   0.87500  0.62500  0.00000
E137  E   0.87500  0.62500  0.25000
E138  E   0.87500  0.62500  0.50000
E139  E   0.87500  0.62500  0.75000
E140  E   0.87500  0.75000  0.12500
E141  E   0.87500  0.75000  0.37500
E142  E   0.87500  0.75000  0.62500
E143  E   0.87500  0.87500  0.25000
E144  E   0.87500  0.87500  0.50000
loop_
