data_xbf_Fm-3m  hall_number: 523, V_con: 6, EC_con: 4
_audit_creation_date              2025-03-05
_audit_creation_method            'MOFbuilder_1.0'
_symmetry_space_group_name_H-M    'P1'
_symmetry_Int_Tables_number       1
_symmetry_cell_setting            triclinic
loop_
_symmetry_equiv_pos_as_xyz
  x,y,z
_cell_length_a                    44.4949
_cell_length_b                    44.4949
_cell_length_c                    44.4949
_cell_angle_alpha                 90.0
_cell_angle_beta                  90.0
_cell_angle_gamma                 90.0
loop_
_atom_site_label
_atom_site_type_symbol
_atom_site_fract_x
_atom_site_fract_y
_atom_site_fract_z
V1    V   0.11237  0.11237  0.11237
V2    V   0.11237  0.11237  0.88763
V3    V   0.11237  0.38763  0.38763
V4    V   0.11237  0.38763  0.61237
V5    V   0.11237  0.61237  0.38763
V6    V   0.11237  0.61237  0.61237
V7    V   0.11237  0.88763  0.11237
V8    V   0.11237  0.88763  0.88763
V9    V   0.38763  0.11237  0.38763
V10   V   0.38763  0.11237  0.61237
V11   V   0.38763  0.38763  0.11237
V12   V   0.38763  0.38763  0.88763
V13   V   0.38763  0.61237  0.11237
V14   V   0.38763  0.61237  0.88763
V15   V   0.38763  0.88763  0.38763
V16   V   0.38763  0.88763  0.61237
V17   V   0.61237  0.11237  0.38763
V18   V   0.61237  0.11237  0.61237
V19   V   0.61237  0.38763  0.11237
V20   V   0.61237  0.38763  0.88763
V21   V   0.61237  0.61237  0.11237
V22   V   0.61237  0.61237  0.88763
V23   V   0.61237  0.88763  0.38763
V24   V   0.61237  0.88763  0.61237
V25   V   0.88763  0.11237  0.11237
V26   V   0.88763  0.11237  0.88763
V27   V   0.88763  0.38763  0.38763
V28   V   0.88763  0.38763  0.61237
V29   V   0.88763  0.61237  0.38763
V30   V   0.88763  0.61237  0.61237
V31   V   0.88763  0.88763  0.11237
V32   V   0.88763  0.88763  0.88763
EC1    EC   0.00000  0.25000  0.25000
EC2    EC   0.00000  0.25000  0.75000
EC3    EC   0.00000  0.75000  0.25000
EC4    EC   0.00000  0.75000  0.75000
EC5    EC   0.25000  0.00000  0.25000
EC6    EC   0.25000  0.00000  0.75000
EC7    EC   0.25000  0.25000  0.00000
EC8    EC   0.25000  0.25000  0.50000
EC9    EC   0.25000  0.50000  0.25000
EC10   EC   0.25000  0.50000  0.75000
EC11   EC   0.25000  0.75000  0.00000
EC12   EC   0.25000  0.75000  0.50000
EC13   EC   0.50000  0.25000  0.25000
EC14   EC   0.50000  0.25000  0.75000
EC15   EC   0.50000  0.75000  0.25000
EC16   EC   0.50000  0.75000  0.75000
EC17   EC   0.75000  0.00000  0.25000
EC18   EC   0.75000  0.00000  0.75000
EC19   EC   0.75000  0.25000  0.00000
EC20   EC   0.75000  0.25000  0.50000
EC21   EC   0.75000  0.50000  0.25000
EC22   EC   0.75000  0.50000  0.75000
EC23   EC   0.75000  0.75000  0.00000
EC24   EC   0.75000  0.75000  0.50000
E1    E   0.00000  0.11237  0.11237
E2    E   0.00000  0.11237  0.88763
E3    E   0.00000  0.38763  0.38763
E4    E   0.00000  0.38763  0.61237
E5    E   0.00000  0.61237  0.38763
E6    E   0.00000  0.61237  0.61237
E7    E   0.00000  0.88763  0.11237
E8    E   0.00000  0.88763  0.88763
E9    E   0.05619  0.18119  0.18119
E10   E   0.05619  0.18119  0.81881
E11   E   0.05619  0.31881  0.31881
E12   E   0.05619  0.31881  0.68119
E13   E   0.05619  0.68119  0.31881
E14   E   0.05619  0.68119  0.68119
E15   E   0.05619  0.81881  0.18119
E16   E   0.05619  0.81881  0.81881
E17   E   0.11237  0.00000  0.11237
E18   E   0.11237  0.00000  0.88763
E19   E   0.11237  0.11237  0.00000
E20   E   0.11237  0.38763  0.50000
E21   E   0.11237  0.50000  0.38763
E22   E   0.11237  0.50000  0.61237
E23   E   0.11237  0.61237  0.50000
E24   E   0.11237  0.88763  0.00000
E25   E   0.18119  0.05619  0.18119
E26   E   0.18119  0.05619  0.81881
E27   E   0.18119  0.18119  0.05619
E28   E   0.18119  0.18119  0.94381
E29   E   0.18119  0.31881  0.44381
E30   E   0.18119  0.31881  0.55619
E31   E   0.18119  0.44381  0.31881
E32   E   0.18119  0.44381  0.68119
E33   E   0.18119  0.55619  0.31881
E34   E   0.18119  0.55619  0.68119
E35   E   0.18119  0.68119  0.44381
E36   E   0.18119  0.68119  0.55619
E37   E   0.18119  0.81881  0.05619
E38   E   0.18119  0.81881  0.94381
E39   E   0.18119  0.94381  0.18119
E40   E   0.18119  0.94381  0.81881
E41   E   0.31881  0.05619  0.31881
E42   E   0.31881  0.05619  0.68119
E43   E   0.31881  0.18119  0.44381
E44   E   0.31881  0.18119  0.55619
E45   E   0.31881  0.31881  0.05619
E46   E   0.31881  0.31881  0.94381
E47   E   0.31881  0.44381  0.18119
E48   E   0.31881  0.44381  0.81881
E49   E   0.31881  0.55619  0.18119
E50   E   0.31881  0.55619  0.81881
E51   E   0.31881  0.68119  0.05619
E52   E   0.31881  0.68119  0.94381
E53   E   0.31881  0.81881  0.44381
E54   E   0.31881  0.81881  0.55619
E55   E   0.31881  0.94381  0.31881
E56   E   0.31881  0.94381  0.68119
E57   E   0.38763  0.00000  0.38763
E58   E   0.38763  0.00000  0.61237
E59   E   0.38763  0.11237  0.50000
E60   E   0.38763  0.38763  0.00000
E61   E   0.38763  0.50000  0.11237
E62   E   0.38763  0.50000  0.88763
E63   E   0.38763  0.61237  0.00000
E64   E   0.38763  0.88763  0.50000
E65   E   0.44381  0.18119  0.31881
E66   E   0.44381  0.18119  0.68119
E67   E   0.44381  0.31881  0.18119
E68   E   0.44381  0.31881  0.81881
E69   E   0.44381  0.68119  0.18119
E70   E   0.44381  0.68119  0.81881
E71   E   0.44381  0.81881  0.31881
E72   E   0.44381  0.81881  0.68119
E73   E   0.50000  0.11237  0.38763
E74   E   0.50000  0.11237  0.61237
E75   E   0.50000  0.38763  0.11237
E76   E   0.50000  0.38763  0.88763
E77   E   0.50000  0.61237  0.11237
E78   E   0.50000  0.61237  0.88763
E79   E   0.50000  0.88763  0.38763
E80   E   0.50000  0.88763  0.61237
E81   E   0.55619  0.18119  0.31881
E82   E   0.55619  0.18119  0.68119
E83   E   0.55619  0.31881  0.18119
E84   E   0.55619  0.31881  0.81881
E85   E   0.55619  0.68119  0.18119
E86   E   0.55619  0.68119  0.81881
E87   E   0.55619  0.81881  0.31881
E88   E   0.55619  0.81881  0.68119
E89   E   0.61237  0.00000  0.38763
E90   E   0.61237  0.00000  0.61237
E91   E   0.61237  0.11237  0.50000
E92   E   0.61237  0.38763  0.00000
E93   E   0.61237  0.50000  0.11237
E94   E   0.61237  0.50000  0.88763
E95   E   0.61237  0.61237  0.00000
E96   E   0.61237  0.88763  0.50000
E97   E   0.68119  0.05619  0.31881
E98   E   0.68119  0.05619  0.68119
E99   E   0.68119  0.18119  0.44381
E100  E   0.68119  0.18119  0.55619
E101  E   0.68119  0.31881  0.05619
E102  E   0.68119  0.31881  0.94381
E103  E   0.68119  0.44381  0.18119
E104  E   0.68119  0.44381  0.81881
E105  E   0.68119  0.55619  0.18119
E106  E   0.68119  0.55619  0.81881
E107  E   0.68119  0.68119  0.05619
E108  E   0.68119  0.68119  0.94381
E109  E   0.68119  0.81881  0.44381
E110  E   0.68119  0.81881  0.55619
E111  E   0.68119  0.94381  0.31881
E112  E   0.68119  0.94381  0.68119
E113  E   0.81881  0.05619  0.18119
E114  E   0.81881  0.05619  0.81881
E115  E   0.81881  0.18119  0.05619
E116  E   0.81881  0.18119  0.94381
E117  E   0.81881  0.31881  0.44381
E118  E   0.81881  0.31881  0.55619
E119  E   0.81881  0.44381  0.31881
E120  E   0.81881  0.44381  0.68119
E121  E   0.81881  0.55619  0.31881
E122  E   0.81881  0.55619  0.68119
E123  E   0.81881  0.68119  0.44381
E124  E   0.81881  0.68119  0.55619
E125  E   0.81881  0.81881  0.05619
E126  E   0.81881  0.81881  0.94381
E127  E   0.81881  0.94381  0.18119
E128  E   0.81881  0.94381  0.81881
E129  E   0.88763  0.00000  0.11237
E130  E   0.88763  0.00000  0.88763
E131  E   0.88763  0.11237  0.00000
E132  E   0.88763  0.38763  0.50000
E133  E   0.88763  0.50000  0.38763
E134  E   0.88763  0.50000  0.61237
E135  E   0.88763  0.61237  0.50000
E136  E   0.88763  0.88763  0.00000
E137  E   0.94381  0.18119  0.18119
E138  E   0.94381  0.18119  0.81881
E139  E   0.94381  0.31881  0.31881
E140  E   0.94381  0.31881  0.68119
E141  E   0.94381  0.68119  0.31881
E142  E   0.94381  0.68119  0.68119
E143  E   0.94381  0.81881  0.18119
E144  E   0.94381  0.81881  0.81881
loop_
