data_xbg_Pm-3m  hall_number: 517, V_con: 8, EC_con: 6
_audit_creation_date              2025-03-05
_audit_creation_method            'MOFbuilder_1.0'
_symmetry_space_group_name_H-M    'P1'
_symmetry_Int_Tables_number       1
_symmetry_cell_setting            triclinic
loop_
_symmetry_equiv_pos_as_xyz
  x,y,z
_cell_length_a                    22.2475
_cell_length_b                    22.2475
_cell_length_c                    22.2475
_cell_angle_alpha                 90.0
_cell_angle_beta                  90.0
_cell_angle_gamma                 90.0
loop_
_atom_site_label
_atom_site_type_symbol
_atom_site_fract_x
_atom_site_fract_y
_atom_site_fract_z
V1    V   0.00000  0.00000  0.50000
V2    V   0.00000  0.50000  0.00000
V3    V   0.50000  0.00000  0.00000
EC1    EC   0.27526  0.27526  0.27526
EC2    EC   0.27526  0.27526  0.72474
EC3    EC   0.27526  0.72474  0.27526
EC4    EC   0.27526  0.72474  0.72474
EC5    EC   0.72474  0.27526  0.27526
EC6    EC   0.72474  0.27526  0.72474
EC7    EC   0.72474  0.72474  0.27526
EC8    EC   0.72474  0.72474  0.72474
E1    E   0.13763  0.13763  0.38763
E2    E   0.13763  0.13763  0.61237
E3    E   0.13763  0.38763  0.13763
E4    E   0.13763  0.38763  0.86237
E5    E   0.13763  0.61237  0.13763
E6    E   0.13763  0.61237  0.86237
E7    E   0.13763  0.86237  0.38763
E8    E   0.13763  0.86237  0.61237
E9    E   0.27526  0.27526  0.50000
E10   E   0.27526  0.50000  0.27526
E11   E   0.27526  0.50000  0.72474
E12   E   0.27526  0.72474  0.50000
E13   E   0.38763  0.13763  0.13763
E14   E   0.38763  0.13763  0.86237
E15   E   0.38763  0.86237  0.13763
E16   E   0.38763  0.86237  0.86237
E17   E   0.50000  0.27526  0.27526
E18   E   0.50000  0.27526  0.72474
E19   E   0.50000  0.72474  0.27526
E20   E   0.50000  0.72474  0.72474
E21   E   0.61237  0.13763  0.13763
E22   E   0.61237  0.13763  0.86237
E23   E   0.61237  0.86237  0.13763
E24   E   0.61237  0.86237  0.86237
E25   E   0.72474  0.27526  0.50000
E26   E   0.72474  0.50000  0.27526
E27   E   0.72474  0.50000  0.72474
E28   E   0.72474  0.72474  0.50000
E29   E   0.86237  0.13763  0.38763
E30   E   0.86237  0.13763  0.61237
E31   E   0.86237  0.38763  0.13763
E32   E   0.86237  0.38763  0.86237
E33   E   0.86237  0.61237  0.13763
E34   E   0.86237  0.61237  0.86237
E35   E   0.86237  0.86237  0.38763
E36   E   0.86237  0.86237  0.61237
loop_
