data_xbh_Fm-3m  hall_number: 523, V_con: 6, EC_con: 4
_audit_creation_date              2025-03-05
_audit_creation_method            'MOFbuilder_1.0'
_symmetry_space_group_name_H-M    'P1'
_symmetry_Int_Tables_number       1
_symmetry_cell_setting            triclinic
loop_
_symmetry_equiv_pos_as_xyz
  x,y,z
_cell_length_a                    48.7831
_cell_length_b                    48.7831
_cell_length_c                    48.7831
_cell_angle_alpha                 90.0
_cell_angle_beta                  90.0
_cell_angle_gamma                 90.0
loop_
_atom_site_label
_atom_site_type_symbol
_atom_site_fract_x
_atom_site_fract_y
_atom_site_fract_z
V1    V   0.17753  0.17753  0.32247
V2    V   0.17753  0.17753  0.67753
V3    V   0.17753  0.17753  0.32247
V4    V   0.17753  0.17753  0.67753
V5    V   0.17753  0.32247  0.17753
V6    V   0.17753  0.32247  0.82247
V7    V   0.17753  0.32247  0.17753
V8    V   0.17753  0.32247  0.82247
V9    V   0.17753  0.67753  0.17753
V10   V   0.17753  0.67753  0.17753
V11   V   0.17753  0.67753  0.82247
V12   V   0.17753  0.82247  0.32247
V13   V   0.17753  0.82247  0.32247
V14   V   0.17753  0.82247  0.67753
V15   V   0.17753  0.17753  0.32247
V16   V   0.17753  0.17753  0.67753
V17   V   0.17753  0.32247  0.17753
V18   V   0.17753  0.32247  0.82247
V19   V   0.17753  0.67753  0.17753
V20   V   0.17753  0.67753  0.82247
V21   V   0.17753  0.82247  0.32247
V22   V   0.17753  0.82247  0.67753
V23   V   0.32247  0.17753  0.17753
V24   V   0.32247  0.17753  0.82247
V25   V   0.32247  0.32247  0.32247
V26   V   0.32247  0.32247  0.67753
V27   V   0.32247  0.67753  0.32247
V28   V   0.32247  0.67753  0.67753
V29   V   0.32247  0.82247  0.17753
V30   V   0.32247  0.82247  0.82247
V31   V   0.32247  0.17753  0.17753
V32   V   0.32247  0.17753  0.82247
V33   V   0.32247  0.17753  0.17753
V34   V   0.32247  0.17753  0.82247
V35   V   0.32247  0.32247  0.32247
V36   V   0.32247  0.32247  0.67753
V37   V   0.32247  0.32247  0.32247
V38   V   0.32247  0.32247  0.67753
V39   V   0.32247  0.67753  0.32247
V40   V   0.32247  0.67753  0.32247
V41   V   0.32247  0.67753  0.67753
V42   V   0.32247  0.82247  0.17753
V43   V   0.32247  0.82247  0.17753
V44   V   0.32247  0.82247  0.82247
V45   V   0.67753  0.17753  0.17753
V46   V   0.67753  0.17753  0.17753
V47   V   0.67753  0.17753  0.82247
V48   V   0.67753  0.17753  0.17753
V49   V   0.67753  0.17753  0.82247
V50   V   0.67753  0.32247  0.32247
V51   V   0.67753  0.32247  0.67753
V52   V   0.67753  0.32247  0.32247
V53   V   0.67753  0.32247  0.32247
V54   V   0.67753  0.32247  0.67753
V55   V   0.67753  0.67753  0.32247
V56   V   0.67753  0.67753  0.32247
V57   V   0.67753  0.67753  0.67753
V58   V   0.67753  0.82247  0.17753
V59   V   0.67753  0.82247  0.17753
V60   V   0.67753  0.82247  0.82247
V61   V   0.82247  0.17753  0.32247
V62   V   0.82247  0.17753  0.32247
V63   V   0.82247  0.17753  0.67753
V64   V   0.82247  0.17753  0.32247
V65   V   0.82247  0.17753  0.67753
V66   V   0.82247  0.32247  0.17753
V67   V   0.82247  0.32247  0.82247
V68   V   0.82247  0.32247  0.17753
V69   V   0.82247  0.32247  0.17753
V70   V   0.82247  0.32247  0.82247
V71   V   0.82247  0.67753  0.17753
V72   V   0.82247  0.67753  0.17753
V73   V   0.82247  0.67753  0.82247
V74   V   0.82247  0.82247  0.32247
V75   V   0.82247  0.82247  0.32247
V76   V   0.82247  0.82247  0.67753
EC1    EC   0.00000  0.25000  0.25000
EC2    EC   0.00000  0.25000  0.75000
EC3    EC   0.00000  0.75000  0.25000
EC4    EC   0.00000  0.75000  0.75000
EC5    EC   0.25000  0.00000  0.25000
EC6    EC   0.25000  0.00000  0.75000
EC7    EC   0.25000  0.25000  0.00000
EC8    EC   0.25000  0.25000  0.50000
EC9    EC   0.25000  0.50000  0.25000
EC10   EC   0.25000  0.50000  0.75000
EC11   EC   0.25000  0.75000  0.00000
EC12   EC   0.25000  0.75000  0.50000
EC13   EC   0.50000  0.25000  0.25000
EC14   EC   0.50000  0.25000  0.75000
EC15   EC   0.50000  0.75000  0.25000
EC16   EC   0.50000  0.75000  0.75000
EC17   EC   0.75000  0.00000  0.25000
EC18   EC   0.75000  0.00000  0.75000
EC19   EC   0.75000  0.25000  0.00000
EC20   EC   0.75000  0.25000  0.50000
EC21   EC   0.75000  0.50000  0.25000
EC22   EC   0.75000  0.50000  0.75000
EC23   EC   0.75000  0.75000  0.00000
EC24   EC   0.75000  0.75000  0.50000
E1    E   0.08876  0.21376  0.28624
E2    E   0.08876  0.21376  0.71376
E3    E   0.08876  0.28624  0.21376
E4    E   0.08876  0.28624  0.78624
E5    E   0.08876  0.71376  0.21376
E6    E   0.08876  0.71376  0.78624
E7    E   0.08876  0.78624  0.28624
E8    E   0.08876  0.78624  0.71376
E9    E   0.17753  0.25000  0.25000
E10   E   0.17753  0.25000  0.75000
E11   E   0.17753  0.75000  0.25000
E12   E   0.17753  0.75000  0.75000
E13   E   0.21376  0.08876  0.28624
E14   E   0.21376  0.08876  0.71376
E15   E   0.21376  0.21376  0.41124
E16   E   0.21376  0.21376  0.58876
E17   E   0.21376  0.28624  0.08876
E18   E   0.21376  0.28624  0.91124
E19   E   0.21376  0.41124  0.21376
E20   E   0.21376  0.41124  0.78624
E21   E   0.21376  0.58876  0.21376
E22   E   0.21376  0.58876  0.78624
E23   E   0.21376  0.71376  0.08876
E24   E   0.21376  0.71376  0.91124
E25   E   0.21376  0.78624  0.41124
E26   E   0.21376  0.78624  0.58876
E27   E   0.21376  0.91124  0.28624
E28   E   0.21376  0.91124  0.71376
E29   E   0.25000  0.17753  0.25000
E30   E   0.25000  0.17753  0.75000
E31   E   0.25000  0.25000  0.17753
E32   E   0.25000  0.25000  0.32247
E33   E   0.25000  0.25000  0.67753
E34   E   0.25000  0.25000  0.82247
E35   E   0.25000  0.32247  0.25000
E36   E   0.25000  0.32247  0.75000
E37   E   0.25000  0.67753  0.25000
E38   E   0.25000  0.67753  0.75000
E39   E   0.25000  0.75000  0.17753
E40   E   0.25000  0.75000  0.32247
E41   E   0.25000  0.75000  0.67753
E42   E   0.25000  0.75000  0.82247
E43   E   0.25000  0.82247  0.25000
E44   E   0.25000  0.82247  0.75000
E45   E   0.28624  0.08876  0.21376
E46   E   0.28624  0.08876  0.78624
E47   E   0.28624  0.21376  0.08876
E48   E   0.28624  0.21376  0.91124
E49   E   0.28624  0.28624  0.41124
E50   E   0.28624  0.28624  0.58876
E51   E   0.28624  0.41124  0.28624
E52   E   0.28624  0.41124  0.71376
E53   E   0.28624  0.58876  0.28624
E54   E   0.28624  0.58876  0.71376
E55   E   0.28624  0.71376  0.41124
E56   E   0.28624  0.71376  0.58876
E57   E   0.28624  0.78624  0.08876
E58   E   0.28624  0.78624  0.91124
E59   E   0.28624  0.91124  0.21376
E60   E   0.28624  0.91124  0.78624
E61   E   0.32247  0.25000  0.25000
E62   E   0.32247  0.25000  0.75000
E63   E   0.32247  0.75000  0.25000
E64   E   0.32247  0.75000  0.75000
E65   E   0.41124  0.21376  0.21376
E66   E   0.41124  0.21376  0.78624
E67   E   0.41124  0.28624  0.28624
E68   E   0.41124  0.28624  0.71376
E69   E   0.41124  0.71376  0.28624
E70   E   0.41124  0.71376  0.71376
E71   E   0.41124  0.78624  0.21376
E72   E   0.41124  0.78624  0.78624
E73   E   0.58876  0.21376  0.21376
E74   E   0.58876  0.21376  0.78624
E75   E   0.58876  0.28624  0.28624
E76   E   0.58876  0.28624  0.71376
E77   E   0.58876  0.71376  0.28624
E78   E   0.58876  0.71376  0.71376
E79   E   0.58876  0.78624  0.21376
E80   E   0.58876  0.78624  0.78624
E81   E   0.67753  0.25000  0.25000
E82   E   0.67753  0.25000  0.75000
E83   E   0.67753  0.75000  0.25000
E84   E   0.67753  0.75000  0.75000
E85   E   0.71376  0.08876  0.21376
E86   E   0.71376  0.08876  0.78624
E87   E   0.71376  0.21376  0.08876
E88   E   0.71376  0.21376  0.91124
E89   E   0.71376  0.28624  0.41124
E90   E   0.71376  0.28624  0.58876
E91   E   0.71376  0.41124  0.28624
E92   E   0.71376  0.41124  0.71376
E93   E   0.71376  0.58876  0.28624
E94   E   0.71376  0.58876  0.71376
E95   E   0.71376  0.71376  0.41124
E96   E   0.71376  0.71376  0.58876
E97   E   0.71376  0.78624  0.08876
E98   E   0.71376  0.78624  0.91124
E99   E   0.71376  0.91124  0.21376
E100  E   0.71376  0.91124  0.78624
E101  E   0.75000  0.17753  0.25000
E102  E   0.75000  0.17753  0.75000
E103  E   0.75000  0.25000  0.17753
E104  E   0.75000  0.25000  0.32247
E105  E   0.75000  0.25000  0.67753
E106  E   0.75000  0.25000  0.82247
E107  E   0.75000  0.32247  0.25000
E108  E   0.75000  0.32247  0.75000
E109  E   0.75000  0.67753  0.25000
E110  E   0.75000  0.67753  0.75000
E111  E   0.75000  0.75000  0.17753
E112  E   0.75000  0.75000  0.32247
E113  E   0.75000  0.75000  0.67753
E114  E   0.75000  0.75000  0.82247
E115  E   0.75000  0.82247  0.25000
E116  E   0.75000  0.82247  0.75000
E117  E   0.78624  0.08876  0.28624
E118  E   0.78624  0.08876  0.71376
E119  E   0.78624  0.21376  0.41124
E120  E   0.78624  0.21376  0.58876
E121  E   0.78624  0.28624  0.08876
E122  E   0.78624  0.28624  0.91124
E123  E   0.78624  0.41124  0.21376
E124  E   0.78624  0.41124  0.78624
E125  E   0.78624  0.58876  0.21376
E126  E   0.78624  0.58876  0.78624
E127  E   0.78624  0.71376  0.08876
E128  E   0.78624  0.71376  0.91124
E129  E   0.78624  0.78624  0.41124
E130  E   0.78624  0.78624  0.58876
E131  E   0.78624  0.91124  0.28624
E132  E   0.78624  0.91124  0.71376
E133  E   0.82247  0.25000  0.25000
E134  E   0.82247  0.25000  0.75000
E135  E   0.82247  0.75000  0.25000
E136  E   0.82247  0.75000  0.75000
E137  E   0.91124  0.21376  0.28624
E138  E   0.91124  0.21376  0.71376
E139  E   0.91124  0.28624  0.21376
E140  E   0.91124  0.28624  0.78624
E141  E   0.91124  0.71376  0.21376
E142  E   0.91124  0.71376  0.78624
E143  E   0.91124  0.78624  0.28624
E144  E   0.91124  0.78624  0.71376
loop_
