data_xbi_Fm-3m  hall_number: 523, V_con: 8, EC_con: 4
_audit_creation_date              2025-03-05
_audit_creation_method            'MOFbuilder_1.0'
_symmetry_space_group_name_H-M    'P1'
_symmetry_Int_Tables_number       1
_symmetry_cell_setting            triclinic
loop_
_symmetry_equiv_pos_as_xyz
  x,y,z
_cell_length_a                    38.637
_cell_length_b                    38.637
_cell_length_c                    38.637
_cell_angle_alpha                 90.0
_cell_angle_beta                  90.0
_cell_angle_gamma                 90.0
loop_
_atom_site_label
_atom_site_type_symbol
_atom_site_fract_x
_atom_site_fract_y
_atom_site_fract_z
V1    V   0.00000  0.00000  0.31699
V2    V   0.00000  0.00000  0.68301
V3    V   0.00000  0.18301  0.50000
V4    V   0.00000  0.31699  0.00000
V5    V   0.00000  0.50000  0.18301
V6    V   0.00000  0.50000  0.81699
V7    V   0.00000  0.68301  0.00000
V8    V   0.00000  0.81699  0.50000
V9    V   0.18301  0.00000  0.50000
V10   V   0.18301  0.50000  0.00000
V11   V   0.31699  0.00000  0.00000
V12   V   0.31699  0.50000  0.50000
V13   V   0.50000  0.00000  0.18301
V14   V   0.50000  0.00000  0.81699
V15   V   0.50000  0.18301  0.00000
V16   V   0.50000  0.31699  0.50000
V17   V   0.50000  0.50000  0.31699
V18   V   0.50000  0.50000  0.68301
V19   V   0.50000  0.68301  0.50000
V20   V   0.50000  0.81699  0.00000
V21   V   0.68301  0.00000  0.00000
V22   V   0.68301  0.50000  0.50000
V23   V   0.81699  0.00000  0.50000
V24   V   0.81699  0.50000  0.00000
EC1    EC   0.00000  0.25000  0.25000
EC2    EC   0.00000  0.25000  0.75000
EC3    EC   0.00000  0.75000  0.25000
EC4    EC   0.00000  0.75000  0.75000
EC5    EC   0.25000  0.00000  0.25000
EC6    EC   0.25000  0.00000  0.75000
EC7    EC   0.25000  0.25000  0.00000
EC8    EC   0.25000  0.25000  0.50000
EC9    EC   0.25000  0.50000  0.25000
EC10   EC   0.25000  0.50000  0.75000
EC11   EC   0.25000  0.75000  0.00000
EC12   EC   0.25000  0.75000  0.50000
EC13   EC   0.50000  0.25000  0.25000
EC14   EC   0.50000  0.25000  0.75000
EC15   EC   0.50000  0.75000  0.25000
EC16   EC   0.50000  0.75000  0.75000
EC17   EC   0.75000  0.00000  0.25000
EC18   EC   0.75000  0.00000  0.75000
EC19   EC   0.75000  0.25000  0.00000
EC20   EC   0.75000  0.25000  0.50000
EC21   EC   0.75000  0.50000  0.25000
EC22   EC   0.75000  0.50000  0.75000
EC23   EC   0.75000  0.75000  0.00000
EC24   EC   0.75000  0.75000  0.50000
E1    E   0.00000  0.09151  0.40849
E2    E   0.00000  0.09151  0.59151
E3    E   0.00000  0.09151  0.40849
E4    E   0.00000  0.09151  0.59151
E5    E   0.00000  0.12500  0.28349
E6    E   0.00000  0.12500  0.71651
E7    E   0.00000  0.21651  0.37500
E8    E   0.00000  0.21651  0.62500
E9    E   0.00000  0.28349  0.12500
E10   E   0.00000  0.28349  0.87500
E11   E   0.00000  0.37500  0.21651
E12   E   0.00000  0.37500  0.78349
E13   E   0.00000  0.40849  0.09151
E14   E   0.00000  0.40849  0.09151
E15   E   0.00000  0.40849  0.90849
E16   E   0.00000  0.59151  0.09151
E17   E   0.00000  0.59151  0.09151
E18   E   0.00000  0.59151  0.90849
E19   E   0.00000  0.62500  0.21651
E20   E   0.00000  0.62500  0.78349
E21   E   0.00000  0.71651  0.12500
E22   E   0.00000  0.71651  0.87500
E23   E   0.00000  0.78349  0.37500
E24   E   0.00000  0.78349  0.62500
E25   E   0.00000  0.87500  0.28349
E26   E   0.00000  0.87500  0.71651
E27   E   0.00000  0.90849  0.40849
E28   E   0.00000  0.90849  0.59151
E29   E   0.09151  0.00000  0.40849
E30   E   0.09151  0.00000  0.59151
E31   E   0.09151  0.09151  0.50000
E32   E   0.09151  0.40849  0.00000
E33   E   0.09151  0.50000  0.09151
E34   E   0.09151  0.50000  0.90849
E35   E   0.09151  0.59151  0.00000
E36   E   0.09151  0.90849  0.50000
E37   E   0.09151  0.00000  0.40849
E38   E   0.09151  0.00000  0.59151
E39   E   0.09151  0.09151  0.50000
E40   E   0.09151  0.40849  0.00000
E41   E   0.09151  0.50000  0.09151
E42   E   0.09151  0.50000  0.90849
E43   E   0.09151  0.59151  0.00000
E44   E   0.09151  0.90849  0.50000
E45   E   0.12500  0.00000  0.28349
E46   E   0.12500  0.00000  0.71651
E47   E   0.12500  0.21651  0.50000
E48   E   0.12500  0.28349  0.00000
E49   E   0.12500  0.50000  0.21651
E50   E   0.12500  0.50000  0.78349
E51   E   0.12500  0.71651  0.00000
E52   E   0.12500  0.78349  0.50000
E53   E   0.21651  0.00000  0.37500
E54   E   0.21651  0.00000  0.62500
E55   E   0.21651  0.12500  0.50000
E56   E   0.21651  0.37500  0.00000
E57   E   0.21651  0.50000  0.12500
E58   E   0.21651  0.50000  0.87500
E59   E   0.21651  0.62500  0.00000
E60   E   0.21651  0.87500  0.50000
E61   E   0.28349  0.00000  0.12500
E62   E   0.28349  0.00000  0.87500
E63   E   0.28349  0.12500  0.00000
E64   E   0.28349  0.37500  0.50000
E65   E   0.28349  0.50000  0.37500
E66   E   0.28349  0.50000  0.62500
E67   E   0.28349  0.62500  0.50000
E68   E   0.28349  0.87500  0.00000
E69   E   0.37500  0.00000  0.21651
E70   E   0.37500  0.00000  0.78349
E71   E   0.37500  0.21651  0.00000
E72   E   0.37500  0.28349  0.50000
E73   E   0.37500  0.50000  0.28349
E74   E   0.37500  0.50000  0.71651
E75   E   0.37500  0.71651  0.50000
E76   E   0.37500  0.78349  0.00000
E77   E   0.40849  0.00000  0.09151
E78   E   0.40849  0.00000  0.09151
E79   E   0.40849  0.00000  0.90849
E80   E   0.40849  0.09151  0.00000
E81   E   0.40849  0.09151  0.00000
E82   E   0.40849  0.40849  0.50000
E83   E   0.40849  0.50000  0.40849
E84   E   0.40849  0.50000  0.59151
E85   E   0.40849  0.59151  0.50000
E86   E   0.40849  0.90849  0.00000
E87   E   0.50000  0.09151  0.09151
E88   E   0.50000  0.09151  0.90849
E89   E   0.50000  0.09151  0.09151
E90   E   0.50000  0.09151  0.90849
E91   E   0.50000  0.12500  0.21651
E92   E   0.50000  0.12500  0.78349
E93   E   0.50000  0.21651  0.12500
E94   E   0.50000  0.21651  0.87500
E95   E   0.50000  0.28349  0.37500
E96   E   0.50000  0.28349  0.62500
E97   E   0.50000  0.37500  0.28349
E98   E   0.50000  0.37500  0.71651
E99   E   0.50000  0.40849  0.40849
E100  E   0.50000  0.40849  0.59151
E101  E   0.50000  0.59151  0.40849
E102  E   0.50000  0.59151  0.59151
E103  E   0.50000  0.62500  0.28349
E104  E   0.50000  0.62500  0.71651
E105  E   0.50000  0.71651  0.37500
E106  E   0.50000  0.71651  0.62500
E107  E   0.50000  0.78349  0.12500
E108  E   0.50000  0.78349  0.87500
E109  E   0.50000  0.87500  0.21651
E110  E   0.50000  0.87500  0.78349
E111  E   0.50000  0.90849  0.09151
E112  E   0.50000  0.90849  0.09151
E113  E   0.50000  0.90849  0.90849
E114  E   0.59151  0.00000  0.09151
E115  E   0.59151  0.00000  0.09151
E116  E   0.59151  0.00000  0.90849
E117  E   0.59151  0.09151  0.00000
E118  E   0.59151  0.09151  0.00000
E119  E   0.59151  0.40849  0.50000
E120  E   0.59151  0.50000  0.40849
E121  E   0.59151  0.50000  0.59151
E122  E   0.59151  0.59151  0.50000
E123  E   0.59151  0.90849  0.00000
E124  E   0.62500  0.00000  0.21651
E125  E   0.62500  0.00000  0.78349
E126  E   0.62500  0.21651  0.00000
E127  E   0.62500  0.28349  0.50000
E128  E   0.62500  0.50000  0.28349
E129  E   0.62500  0.50000  0.71651
E130  E   0.62500  0.71651  0.50000
E131  E   0.62500  0.78349  0.00000
E132  E   0.71651  0.00000  0.12500
E133  E   0.71651  0.00000  0.87500
E134  E   0.71651  0.12500  0.00000
E135  E   0.71651  0.37500  0.50000
E136  E   0.71651  0.50000  0.37500
E137  E   0.71651  0.50000  0.62500
E138  E   0.71651  0.62500  0.50000
E139  E   0.71651  0.87500  0.00000
E140  E   0.78349  0.00000  0.37500
E141  E   0.78349  0.00000  0.62500
E142  E   0.78349  0.12500  0.50000
E143  E   0.78349  0.37500  0.00000
E144  E   0.78349  0.50000  0.12500
E145  E   0.78349  0.50000  0.87500
E146  E   0.78349  0.62500  0.00000
E147  E   0.78349  0.87500  0.50000
E148  E   0.87500  0.00000  0.28349
E149  E   0.87500  0.00000  0.71651
E150  E   0.87500  0.21651  0.50000
E151  E   0.87500  0.28349  0.00000
E152  E   0.87500  0.50000  0.21651
E153  E   0.87500  0.50000  0.78349
E154  E   0.87500  0.71651  0.00000
E155  E   0.87500  0.78349  0.50000
E156  E   0.90849  0.00000  0.40849
E157  E   0.90849  0.00000  0.59151
E158  E   0.90849  0.09151  0.50000
E159  E   0.90849  0.09151  0.50000
E160  E   0.90849  0.40849  0.00000
E161  E   0.90849  0.50000  0.09151
E162  E   0.90849  0.50000  0.09151
E163  E   0.90849  0.50000  0.90849
E164  E   0.90849  0.59151  0.00000
E165  E   0.90849  0.90849  0.50000
loop_
