data_xby_P63/mmc  hall_number: 488, V_con: 6, EC_con: 4
_audit_creation_date              2025-03-05
_audit_creation_method            'MOFbuilder_1.0'
_symmetry_space_group_name_H-M    'P1'
_symmetry_Int_Tables_number       1
_symmetry_cell_setting            triclinic
loop_
_symmetry_equiv_pos_as_xyz
  x,y,z
_cell_length_a                    15.6144
_cell_length_b                    15.6144
_cell_length_c                    37.3114
_cell_angle_alpha                 90.0
_cell_angle_beta                  90.0
_cell_angle_gamma                 120.0
loop_
_atom_site_label
_atom_site_type_symbol
_atom_site_fract_x
_atom_site_fract_y
_atom_site_fract_z
V1    V   0.33333  0.66666  0.25000
V2    V   0.33333  0.66667  0.25000
V3    V   0.33334  0.66667  0.25000
V4    V   0.66666  0.33333  0.75000
V5    V   0.66667  0.33333  0.75000
V6    V   0.66667  0.33334  0.75000
EC1    EC   0.00000  0.00000  0.13401
EC2    EC   0.00000  0.00000  0.36599
EC3    EC   0.00000  0.00000  0.63401
EC4    EC   0.00000  0.00000  0.86599
E1    E   0.00000  0.00000  0.00000
E2    E   0.00000  0.00000  0.50000
E3    E   0.16667  0.33334  0.19200
E4    E   0.16667  0.33334  0.30800
E5    E   0.16667  0.83333  0.19200
E6    E   0.16667  0.83333  0.30800
E7    E   0.33334  0.16667  0.69200
E8    E   0.33334  0.16667  0.80800
E9    E   0.66666  0.83333  0.19200
E10   E   0.66666  0.83333  0.30800
E11   E   0.83333  0.16667  0.69200
E12   E   0.83333  0.16667  0.80800
E13   E   0.83333  0.66666  0.69200
E14   E   0.83333  0.66666  0.80800
loop_
