data_xfd_I41/amd:2  hall_number: 427, V_con: 7
_audit_creation_date              2025-03-05
_audit_creation_method            'MOFbuilder_1.0'
_symmetry_space_group_name_H-M    'P1'
_symmetry_Int_Tables_number       1
_symmetry_cell_setting            triclinic
loop_
_symmetry_equiv_pos_as_xyz
  x,y,z
_cell_length_a                    22.6103
_cell_length_b                    22.6103
_cell_length_c                    23.747
_cell_angle_alpha                 90.0
_cell_angle_beta                  90.0
_cell_angle_gamma                 90.0
loop_
_atom_site_label
_atom_site_type_symbol
_atom_site_fract_x
_atom_site_fract_y
_atom_site_fract_z
V1    V   0.00000  0.02886  0.72612
V2    V   0.00000  0.47114  0.72612
V3    V   0.00000  0.52886  0.27388
V4    V   0.00000  0.97114  0.27388
V5    V   0.22114  0.25000  0.02388
V6    V   0.22114  0.75000  0.97612
V7    V   0.27886  0.25000  0.47612
V8    V   0.27886  0.75000  0.52388
V9    V   0.50000  0.02886  0.77388
V10   V   0.50000  0.47114  0.77388
V11   V   0.50000  0.52886  0.22612
V12   V   0.50000  0.97114  0.22612
V13   V   0.72114  0.25000  0.47612
V14   V   0.72114  0.75000  0.52388
V15   V   0.77886  0.25000  0.02388
V16   V   0.77886  0.75000  0.97612
E1    E   0.00000  0.25000  0.02388
E2    E   0.00000  0.25000  0.72612
E3    E   0.00000  0.75000  0.27388
E4    E   0.00000  0.75000  0.97612
E5    E   0.11057  0.13943  0.87500
E6    E   0.11057  0.36057  0.87500
E7    E   0.11057  0.63943  0.12500
E8    E   0.11057  0.86057  0.12500
E9    E   0.11057  0.11057  0.14888
E10   E   0.11057  0.13943  0.87500
E11   E   0.11057  0.36057  0.87500
E12   E   0.11057  0.38943  0.14888
E13   E   0.11057  0.61057  0.85112
E14   E   0.11057  0.63943  0.12500
E15   E   0.11057  0.86057  0.12500
E16   E   0.11057  0.88943  0.85112
E17   E   0.13943  0.13943  0.60112
E18   E   0.13943  0.36057  0.60112
E19   E   0.13943  0.63943  0.39888
E20   E   0.13943  0.86057  0.39888
E21   E   0.36057  0.13943  0.89888
E22   E   0.36057  0.36057  0.89888
E23   E   0.36057  0.63943  0.10112
E24   E   0.36057  0.86057  0.10112
E25   E   0.38943  0.13943  0.62500
E26   E   0.38943  0.36057  0.62500
E27   E   0.38943  0.63943  0.37500
E28   E   0.38943  0.86057  0.37500
E29   E   0.38943  0.11057  0.35112
E30   E   0.38943  0.13943  0.62500
E31   E   0.38943  0.36057  0.62500
E32   E   0.38943  0.38943  0.35112
E33   E   0.38943  0.61057  0.64888
E34   E   0.38943  0.63943  0.37500
E35   E   0.38943  0.86057  0.37500
E36   E   0.38943  0.88943  0.64888
E37   E   0.50000  0.25000  0.47612
E38   E   0.50000  0.25000  0.77388
E39   E   0.50000  0.75000  0.22612
E40   E   0.50000  0.75000  0.52388
E41   E   0.61057  0.13943  0.62500
E42   E   0.61057  0.36057  0.62500
E43   E   0.61057  0.63943  0.37500
E44   E   0.61057  0.86057  0.37500
E45   E   0.61057  0.11057  0.35112
E46   E   0.61057  0.13943  0.62500
E47   E   0.61057  0.36057  0.62500
E48   E   0.61057  0.38943  0.35112
E49   E   0.61057  0.61057  0.64888
E50   E   0.61057  0.63943  0.37500
E51   E   0.61057  0.86057  0.37500
E52   E   0.61057  0.88943  0.64888
E53   E   0.63943  0.13943  0.89888
E54   E   0.63943  0.36057  0.89888
E55   E   0.63943  0.63943  0.10112
E56   E   0.63943  0.86057  0.10112
E57   E   0.86057  0.13943  0.60112
E58   E   0.86057  0.36057  0.60112
E59   E   0.86057  0.63943  0.39888
E60   E   0.86057  0.86057  0.39888
E61   E   0.88943  0.11057  0.14888
E62   E   0.88943  0.13943  0.87500
E63   E   0.88943  0.36057  0.87500
E64   E   0.88943  0.38943  0.14888
E65   E   0.88943  0.61057  0.85112
E66   E   0.88943  0.63943  0.12500
E67   E   0.88943  0.86057  0.12500
E68   E   0.88943  0.88943  0.85112
E69   E   0.88943  0.13943  0.87500
E70   E   0.88943  0.36057  0.87500
E71   E   0.88943  0.63943  0.12500
E72   E   0.88943  0.86057  0.12500
loop_
