data_xfj_I-42d  hall_number: 399, V_con: 7
_audit_creation_date              2025-03-05
_audit_creation_method            'MOFbuilder_1.0'
_symmetry_space_group_name_H-M    'P1'
_symmetry_Int_Tables_number       1
_symmetry_cell_setting            triclinic
loop_
_symmetry_equiv_pos_as_xyz
  x,y,z
_cell_length_a                    23.3694
_cell_length_b                    23.3694
_cell_length_c                    22.5324
_cell_angle_alpha                 90.0
_cell_angle_beta                  90.0
_cell_angle_gamma                 90.0
loop_
_atom_site_label
_atom_site_type_symbol
_atom_site_fract_x
_atom_site_fract_y
_atom_site_fract_z
V1    V   0.03827  0.21050  0.34309
V2    V   0.03827  0.28950  0.90691
V3    V   0.21050  0.53827  0.59309
V4    V   0.21050  0.96173  0.65691
V5    V   0.28950  0.53827  0.15691
V6    V   0.28950  0.96173  0.09309
V7    V   0.46173  0.21050  0.40691
V8    V   0.46173  0.28950  0.84309
V9    V   0.53827  0.71050  0.84309
V10   V   0.53827  0.78950  0.40691
V11   V   0.71050  0.03827  0.09309
V12   V   0.71050  0.46173  0.15691
V13   V   0.78950  0.03827  0.65691
V14   V   0.78950  0.46173  0.59309
V15   V   0.96173  0.71050  0.90691
V16   V   0.96173  0.78950  0.34309
E1    E   0.00000  0.00000  0.34309
E2    E   0.00000  0.00000  0.65691
E3    E   0.00000  0.50000  0.59309
E4    E   0.00000  0.50000  0.90691
E5    E   0.03827  0.25000  0.12500
E6    E   0.08612  0.62439  0.75000
E7    E   0.08612  0.66388  0.46809
E8    E   0.08612  0.83612  0.78191
E9    E   0.08612  0.87561  0.50000
E10   E   0.12439  0.08612  0.50000
E11   E   0.12439  0.41388  0.75000
E12   E   0.16388  0.08612  0.21809
E13   E   0.16388  0.41388  0.03191
E14   E   0.21050  0.75000  0.62500
E15   E   0.25000  0.21050  0.37500
E16   E   0.25000  0.28950  0.87500
E17   E   0.25000  0.53827  0.37500
E18   E   0.25000  0.96173  0.87500
E19   E   0.28950  0.75000  0.12500
E20   E   0.33612  0.08612  0.53191
E21   E   0.33612  0.41388  0.71809
E22   E   0.37561  0.08612  0.25000
E23   E   0.37561  0.41388  0.00000
E24   E   0.41388  0.62439  0.00000
E25   E   0.41388  0.66388  0.28191
E26   E   0.41388  0.83612  0.96809
E27   E   0.41388  0.87561  0.25000
E28   E   0.46173  0.25000  0.62500
E29   E   0.50000  0.00000  0.09309
E30   E   0.50000  0.00000  0.40691
E31   E   0.50000  0.50000  0.15691
E32   E   0.50000  0.50000  0.84309
E33   E   0.53827  0.75000  0.62500
E34   E   0.58612  0.12439  0.25000
E35   E   0.58612  0.16388  0.96809
E36   E   0.58612  0.33612  0.28191
E37   E   0.58612  0.37561  0.00000
E38   E   0.62439  0.58612  0.00000
E39   E   0.62439  0.91388  0.25000
E40   E   0.66388  0.58612  0.71809
E41   E   0.66388  0.91388  0.53191
E42   E   0.71050  0.25000  0.12500
E43   E   0.75000  0.03827  0.87500
E44   E   0.75000  0.46173  0.37500
E45   E   0.75000  0.71050  0.87500
E46   E   0.75000  0.78950  0.37500
E47   E   0.78950  0.25000  0.62500
E48   E   0.83612  0.58612  0.03191
E49   E   0.83612  0.91388  0.21809
E50   E   0.87561  0.58612  0.75000
E51   E   0.87561  0.91388  0.50000
E52   E   0.91388  0.12439  0.50000
E53   E   0.91388  0.16388  0.78191
E54   E   0.91388  0.33612  0.46809
E55   E   0.91388  0.37561  0.75000
E56   E   0.96173  0.75000  0.12500
loop_
