data_xik_Im-3m  hall_number: 529, V_con: 4, EC_con: 4
_audit_creation_date              2025-03-05
_audit_creation_method            'MOFbuilder_1.0'
_symmetry_space_group_name_H-M    'P1'
_symmetry_Int_Tables_number       1
_symmetry_cell_setting            triclinic
loop_
_symmetry_equiv_pos_as_xyz
  x,y,z
_cell_length_a                    47.3056
_cell_length_b                    47.3056
_cell_length_c                    47.3056
_cell_angle_alpha                 90.0
_cell_angle_beta                  90.0
_cell_angle_gamma                 90.0
loop_
_atom_site_label
_atom_site_type_symbol
_atom_site_fract_x
_atom_site_fract_y
_atom_site_fract_z
V1    V   0.00000  0.21138  0.36086
V2    V   0.00000  0.21138  0.63914
V3    V   0.00000  0.36086  0.21138
V4    V   0.00000  0.36086  0.78862
V5    V   0.00000  0.63914  0.21138
V6    V   0.00000  0.63914  0.78862
V7    V   0.00000  0.78862  0.36086
V8    V   0.00000  0.78862  0.63914
V9    V   0.13914  0.28862  0.50000
V10   V   0.13914  0.50000  0.28862
V11   V   0.13914  0.50000  0.71138
V12   V   0.13914  0.71138  0.50000
V13   V   0.21138  0.00000  0.36086
V14   V   0.21138  0.00000  0.63914
V15   V   0.21138  0.36086  0.00000
V16   V   0.21138  0.63914  0.00000
V17   V   0.28862  0.13914  0.50000
V18   V   0.28862  0.50000  0.13914
V19   V   0.28862  0.50000  0.86086
V20   V   0.28862  0.86086  0.50000
V21   V   0.36086  0.00000  0.21138
V22   V   0.36086  0.00000  0.78862
V23   V   0.36086  0.21138  0.00000
V24   V   0.36086  0.78862  0.00000
V25   V   0.50000  0.13914  0.28862
V26   V   0.50000  0.13914  0.71138
V27   V   0.50000  0.28862  0.13914
V28   V   0.50000  0.28862  0.86086
V29   V   0.50000  0.71138  0.13914
V30   V   0.50000  0.71138  0.86086
V31   V   0.50000  0.86086  0.28862
V32   V   0.50000  0.86086  0.71138
V33   V   0.63914  0.00000  0.21138
V34   V   0.63914  0.00000  0.78862
V35   V   0.63914  0.21138  0.00000
V36   V   0.63914  0.78862  0.00000
V37   V   0.71138  0.13914  0.50000
V38   V   0.71138  0.50000  0.13914
V39   V   0.71138  0.50000  0.86086
V40   V   0.71138  0.86086  0.50000
V41   V   0.78862  0.00000  0.36086
V42   V   0.78862  0.00000  0.63914
V43   V   0.78862  0.36086  0.00000
V44   V   0.78862  0.63914  0.00000
V45   V   0.86086  0.28862  0.50000
V46   V   0.86086  0.50000  0.28862
V47   V   0.86086  0.50000  0.71138
V48   V   0.86086  0.71138  0.50000
EC1    EC   0.00000  0.00000  0.36285
EC2    EC   0.00000  0.00000  0.63715
EC3    EC   0.00000  0.36285  0.00000
EC4    EC   0.00000  0.63715  0.00000
EC5    EC   0.13715  0.50000  0.50000
EC6    EC   0.36285  0.00000  0.00000
EC7    EC   0.50000  0.13715  0.50000
EC8    EC   0.50000  0.50000  0.13715
EC9    EC   0.50000  0.50000  0.86285
EC10   EC   0.50000  0.86285  0.50000
EC11   EC   0.63715  0.00000  0.00000
EC12   EC   0.86285  0.50000  0.50000
E1    E   0.00000  0.10569  0.36185
E2    E   0.00000  0.10569  0.63815
E3    E   0.00000  0.28612  0.28612
E4    E   0.00000  0.28612  0.71388
E5    E   0.00000  0.36185  0.10569
E6    E   0.00000  0.36185  0.89431
E7    E   0.00000  0.63815  0.10569
E8    E   0.00000  0.63815  0.89431
E9    E   0.00000  0.71388  0.28612
E10   E   0.00000  0.71388  0.71388
E11   E   0.00000  0.89431  0.36185
E12   E   0.00000  0.89431  0.63815
E13   E   0.06957  0.25000  0.43043
E14   E   0.06957  0.25000  0.56957
E15   E   0.06957  0.43043  0.25000
E16   E   0.06957  0.43043  0.75000
E17   E   0.06957  0.56957  0.25000
E18   E   0.06957  0.56957  0.75000
E19   E   0.06957  0.75000  0.43043
E20   E   0.06957  0.75000  0.56957
E21   E   0.06957  0.25000  0.43043
E22   E   0.06957  0.25000  0.56957
E23   E   0.06957  0.43043  0.25000
E24   E   0.06957  0.43043  0.75000
E25   E   0.06957  0.56957  0.25000
E26   E   0.06957  0.56957  0.75000
E27   E   0.06957  0.75000  0.43043
E28   E   0.06957  0.75000  0.56957
E29   E   0.10569  0.00000  0.36185
E30   E   0.10569  0.00000  0.63815
E31   E   0.10569  0.36185  0.00000
E32   E   0.10569  0.63815  0.00000
E33   E   0.13815  0.39431  0.50000
E34   E   0.13815  0.50000  0.39431
E35   E   0.13815  0.50000  0.60569
E36   E   0.13815  0.60569  0.50000
E37   E   0.21388  0.21388  0.50000
E38   E   0.21388  0.50000  0.21388
E39   E   0.21388  0.50000  0.78612
E40   E   0.21388  0.78612  0.50000
E41   E   0.25000  0.06957  0.43043
E42   E   0.25000  0.06957  0.56957
E43   E   0.25000  0.06957  0.43043
E44   E   0.25000  0.06957  0.56957
E45   E   0.25000  0.43043  0.06957
E46   E   0.25000  0.43043  0.06957
E47   E   0.25000  0.43043  0.93043
E48   E   0.25000  0.56957  0.06957
E49   E   0.25000  0.56957  0.06957
E50   E   0.25000  0.56957  0.93043
E51   E   0.25000  0.93043  0.43043
E52   E   0.25000  0.93043  0.56957
E53   E   0.28612  0.00000  0.28612
E54   E   0.28612  0.00000  0.71388
E55   E   0.28612  0.28612  0.00000
E56   E   0.28612  0.71388  0.00000
E57   E   0.36185  0.00000  0.10569
E58   E   0.36185  0.00000  0.89431
E59   E   0.36185  0.10569  0.00000
E60   E   0.36185  0.89431  0.00000
E61   E   0.39431  0.13815  0.50000
E62   E   0.39431  0.50000  0.13815
E63   E   0.39431  0.50000  0.86185
E64   E   0.39431  0.86185  0.50000
E65   E   0.43043  0.06957  0.25000
E66   E   0.43043  0.06957  0.75000
E67   E   0.43043  0.06957  0.25000
E68   E   0.43043  0.06957  0.75000
E69   E   0.43043  0.25000  0.06957
E70   E   0.43043  0.25000  0.06957
E71   E   0.43043  0.25000  0.93043
E72   E   0.43043  0.75000  0.06957
E73   E   0.43043  0.75000  0.06957
E74   E   0.43043  0.75000  0.93043
E75   E   0.43043  0.93043  0.25000
E76   E   0.43043  0.93043  0.75000
E77   E   0.50000  0.13815  0.39431
E78   E   0.50000  0.13815  0.60569
E79   E   0.50000  0.21388  0.21388
E80   E   0.50000  0.21388  0.78612
E81   E   0.50000  0.39431  0.13815
E82   E   0.50000  0.39431  0.86185
E83   E   0.50000  0.60569  0.13815
E84   E   0.50000  0.60569  0.86185
E85   E   0.50000  0.78612  0.21388
E86   E   0.50000  0.78612  0.78612
E87   E   0.50000  0.86185  0.39431
E88   E   0.50000  0.86185  0.60569
E89   E   0.56957  0.06957  0.25000
E90   E   0.56957  0.06957  0.75000
E91   E   0.56957  0.06957  0.25000
E92   E   0.56957  0.06957  0.75000
E93   E   0.56957  0.25000  0.06957
E94   E   0.56957  0.25000  0.06957
E95   E   0.56957  0.25000  0.93043
E96   E   0.56957  0.75000  0.06957
E97   E   0.56957  0.75000  0.06957
E98   E   0.56957  0.75000  0.93043
E99   E   0.56957  0.93043  0.25000
E100  E   0.56957  0.93043  0.75000
E101  E   0.60569  0.13815  0.50000
E102  E   0.60569  0.50000  0.13815
E103  E   0.60569  0.50000  0.86185
E104  E   0.60569  0.86185  0.50000
E105  E   0.63815  0.00000  0.10569
E106  E   0.63815  0.00000  0.89431
E107  E   0.63815  0.10569  0.00000
E108  E   0.63815  0.89431  0.00000
E109  E   0.71388  0.00000  0.28612
E110  E   0.71388  0.00000  0.71388
E111  E   0.71388  0.28612  0.00000
E112  E   0.71388  0.71388  0.00000
E113  E   0.75000  0.06957  0.43043
E114  E   0.75000  0.06957  0.56957
E115  E   0.75000  0.06957  0.43043
E116  E   0.75000  0.06957  0.56957
E117  E   0.75000  0.43043  0.06957
E118  E   0.75000  0.43043  0.06957
E119  E   0.75000  0.43043  0.93043
E120  E   0.75000  0.56957  0.06957
E121  E   0.75000  0.56957  0.06957
E122  E   0.75000  0.56957  0.93043
E123  E   0.75000  0.93043  0.43043
E124  E   0.75000  0.93043  0.56957
E125  E   0.78612  0.21388  0.50000
E126  E   0.78612  0.50000  0.21388
E127  E   0.78612  0.50000  0.78612
E128  E   0.78612  0.78612  0.50000
E129  E   0.86185  0.39431  0.50000
E130  E   0.86185  0.50000  0.39431
E131  E   0.86185  0.50000  0.60569
E132  E   0.86185  0.60569  0.50000
E133  E   0.89431  0.00000  0.36185
E134  E   0.89431  0.00000  0.63815
E135  E   0.89431  0.36185  0.00000
E136  E   0.89431  0.63815  0.00000
E137  E   0.93043  0.25000  0.43043
E138  E   0.93043  0.25000  0.56957
E139  E   0.93043  0.43043  0.25000
E140  E   0.93043  0.43043  0.75000
E141  E   0.93043  0.56957  0.25000
E142  E   0.93043  0.56957  0.75000
E143  E   0.93043  0.75000  0.43043
E144  E   0.93043  0.75000  0.56957
loop_
