data_xmz_R-3c:H  hall_number: 167, V_con: 9, EC_con: 3
_audit_creation_date              2025-03-05
_audit_creation_method            'MOFbuilder_1.0'
_symmetry_space_group_name_H-M    'P1'
_symmetry_Int_Tables_number       1
_symmetry_cell_setting            triclinic
loop_
_symmetry_equiv_pos_as_xyz
  x,y,z
_cell_length_a                    25.003
_cell_length_b                    25.003
_cell_length_c                    38.7206
_cell_angle_alpha                 90.0
_cell_angle_beta                  90.0
_cell_angle_gamma                 120.0
loop_
_atom_site_label
_atom_site_type_symbol
_atom_site_fract_x
_atom_site_fract_y
_atom_site_fract_z
V1    V   0.00000  0.00000  0.25000
V2    V   0.00000  0.50000  0.75000
V3    V   0.50000  0.00000  0.75000
V4    V   0.50000  0.50000  0.25000
EC1    EC   0.00000  0.60005  0.25000
EC2    EC   0.00000  0.89995  0.75000
EC3    EC   0.50000  0.10005  0.25000
EC4    EC   0.50000  0.39995  0.75000
E1    E   0.13336  0.53331  0.66667
E2    E   0.13336  0.96669  0.16667
E3    E   0.19998  0.19998  0.25000
E4    E   0.19998  0.30002  0.75000
E5    E   0.63336  0.03331  0.83333
E6    E   0.63336  0.46669  0.33333
E7    E   0.69998  0.69998  0.25000
E8    E   0.69998  0.80002  0.75000
loop_
