data_xxv_Pm-3m  hall_number: 517, V_con: 12, EC_con: 3
_audit_creation_date              2025-03-05
_audit_creation_method            'MOFbuilder_1.0'
_symmetry_space_group_name_H-M    'P1'
_symmetry_Int_Tables_number       1
_symmetry_cell_setting            triclinic
loop_
_symmetry_equiv_pos_as_xyz
  x,y,z
_cell_length_a                    24.142100000000003
_cell_length_b                    24.142100000000003
_cell_length_c                    24.142100000000003
_cell_angle_alpha                 90.0
_cell_angle_beta                  90.0
_cell_angle_gamma                 90.0
loop_
_atom_site_label
_atom_site_type_symbol
_atom_site_fract_x
_atom_site_fract_y
_atom_site_fract_z
V1    V   0.00000  0.00000  0.00000
EC1    EC   0.00000  0.29289  0.29289
EC2    EC   0.00000  0.29289  0.70711
EC3    EC   0.00000  0.70711  0.29289
EC4    EC   0.00000  0.70711  0.70711
EC5    EC   0.29289  0.00000  0.29289
EC6    EC   0.29289  0.00000  0.70711
EC7    EC   0.29289  0.29289  0.00000
EC8    EC   0.29289  0.70711  0.00000
EC9    EC   0.70711  0.00000  0.29289
EC10   EC   0.70711  0.00000  0.70711
EC11   EC   0.70711  0.29289  0.00000
EC12   EC   0.70711  0.70711  0.00000
E1    E   0.00000  0.14645  0.14645
E2    E   0.00000  0.14645  0.85355
E3    E   0.00000  0.29289  0.50000
E4    E   0.00000  0.50000  0.29289
E5    E   0.00000  0.50000  0.70711
E6    E   0.00000  0.70711  0.50000
E7    E   0.00000  0.85355  0.14645
E8    E   0.00000  0.85355  0.85355
E9    E   0.14645  0.00000  0.14645
E10   E   0.14645  0.00000  0.85355
E11   E   0.14645  0.14645  0.00000
E12   E   0.14645  0.85355  0.00000
E13   E   0.29289  0.00000  0.50000
E14   E   0.29289  0.50000  0.00000
E15   E   0.50000  0.00000  0.29289
E16   E   0.50000  0.00000  0.70711
E17   E   0.50000  0.29289  0.00000
E18   E   0.50000  0.70711  0.00000
E19   E   0.70711  0.00000  0.50000
E20   E   0.70711  0.50000  0.00000
E21   E   0.85355  0.00000  0.14645
E22   E   0.85355  0.00000  0.85355
E23   E   0.85355  0.14645  0.00000
E24   E   0.85355  0.85355  0.00000
loop_
