data_yfc_P42/nbc:2  hall_number: 415, V_con: 5
_audit_creation_date              2025-03-05
_audit_creation_method            'MOFbuilder_1.0'
_symmetry_space_group_name_H-M    'P1'
_symmetry_Int_Tables_number       1
_symmetry_cell_setting            triclinic
loop_
_symmetry_equiv_pos_as_xyz
  x,y,z
_cell_length_a                    23.6528
_cell_length_b                    23.6528
_cell_length_c                    31.4828
_cell_angle_alpha                 90.0
_cell_angle_beta                  90.0
_cell_angle_gamma                 90.0
loop_
_atom_site_label
_atom_site_type_symbol
_atom_site_fract_x
_atom_site_fract_y
_atom_site_fract_z
V1    V   0.06672  0.64467  0.36230
V2    V   0.06672  0.85533  0.63770
V3    V   0.14467  0.56672  0.86230
V4    V   0.14467  0.93328  0.13770
V5    V   0.35533  0.56672  0.13770
V6    V   0.35533  0.93328  0.86230
V7    V   0.43328  0.64467  0.63770
V8    V   0.43328  0.85533  0.36230
V9    V   0.56672  0.14467  0.63770
V10   V   0.56672  0.35533  0.36230
V11   V   0.64467  0.06672  0.13770
V12   V   0.64467  0.43328  0.86230
V13   V   0.85533  0.06672  0.86230
V14   V   0.85533  0.43328  0.13770
V15   V   0.93328  0.14467  0.36230
V16   V   0.93328  0.35533  0.63770
E1    E   0.03898  0.03898  0.25000
E2    E   0.03898  0.46102  0.75000
E3    E   0.03898  0.03898  0.25000
E4    E   0.03898  0.46102  0.75000
E5    E   0.06672  0.75000  0.50000
E6    E   0.10569  0.71102  0.75000
E7    E   0.10569  0.78898  0.25000
E8    E   0.21102  0.60569  0.25000
E9    E   0.21102  0.89431  0.75000
E10   E   0.25000  0.56672  0.00000
E11   E   0.25000  0.75000  0.13770
E12   E   0.25000  0.75000  0.36230
E13   E   0.25000  0.75000  0.63770
E14   E   0.25000  0.75000  0.86230
E15   E   0.25000  0.93328  0.00000
E16   E   0.28898  0.60569  0.75000
E17   E   0.28898  0.89431  0.25000
E18   E   0.39431  0.71102  0.25000
E19   E   0.39431  0.78898  0.75000
E20   E   0.43328  0.75000  0.50000
E21   E   0.46102  0.03898  0.75000
E22   E   0.46102  0.03898  0.75000
E23   E   0.46102  0.46102  0.25000
E24   E   0.53898  0.53898  0.75000
E25   E   0.53898  0.96102  0.25000
E26   E   0.56672  0.25000  0.50000
E27   E   0.60569  0.21102  0.25000
E28   E   0.60569  0.28898  0.75000
E29   E   0.71102  0.10569  0.75000
E30   E   0.71102  0.39431  0.25000
E31   E   0.75000  0.06672  0.00000
E32   E   0.75000  0.25000  0.13770
E33   E   0.75000  0.25000  0.36230
E34   E   0.75000  0.25000  0.63770
E35   E   0.75000  0.25000  0.86230
E36   E   0.75000  0.43328  0.00000
E37   E   0.78898  0.10569  0.25000
E38   E   0.78898  0.39431  0.75000
E39   E   0.89431  0.21102  0.75000
E40   E   0.89431  0.28898  0.25000
E41   E   0.93328  0.25000  0.50000
E42   E   0.96102  0.53898  0.25000
E43   E   0.96102  0.96102  0.75000
loop_
