data_yfi_I41/a:2  hall_number: 365, V_con: 5
_audit_creation_date              2025-03-05
_audit_creation_method            'MOFbuilder_1.0'
_symmetry_space_group_name_H-M    'P1'
_symmetry_Int_Tables_number       1
_symmetry_cell_setting            triclinic
loop_
_symmetry_equiv_pos_as_xyz
  x,y,z
_cell_length_a                    32.0899
_cell_length_b                    32.0899
_cell_length_c                    29.1133
_cell_angle_alpha                 90.0
_cell_angle_beta                  90.0
_cell_angle_gamma                 90.0
loop_
_atom_site_label
_atom_site_type_symbol
_atom_site_fract_x
_atom_site_fract_y
_atom_site_fract_z
V1    V   0.11555  0.43103  0.08658
V2    V   0.11555  0.93103  0.91342
V3    V   0.18103  0.13445  0.16342
V4    V   0.18103  0.63445  0.83658
V5    V   0.31897  0.36555  0.33658
V6    V   0.31897  0.86555  0.66342
V7    V   0.38445  0.06897  0.41342
V8    V   0.38445  0.56897  0.58658
V9    V   0.61555  0.43103  0.41342
V10   V   0.61555  0.93103  0.58658
V11   V   0.68103  0.13445  0.33658
V12   V   0.68103  0.63445  0.66342
V13   V   0.81897  0.36555  0.16342
V14   V   0.81897  0.86555  0.83658
V15   V   0.88445  0.06897  0.08658
V16   V   0.88445  0.56897  0.91342
E1    E   0.00000  0.00000  0.00000
E2    E   0.00000  0.50000  0.00000
E3    E   0.03274  0.10171  0.12500
E4    E   0.03274  0.60171  0.87500
E5    E   0.14829  0.03274  0.03842
E6    E   0.14829  0.28274  0.12500
E7    E   0.14829  0.53274  0.96158
E8    E   0.14829  0.78274  0.87500
E9    E   0.21726  0.39829  0.21158
E10   E   0.21726  0.89829  0.78842
E11   E   0.25000  0.25000  0.25000
E12   E   0.25000  0.75000  0.75000
E13   E   0.28274  0.10171  0.28842
E14   E   0.28274  0.60171  0.71158
E15   E   0.35171  0.21726  0.37500
E16   E   0.35171  0.46726  0.46158
E17   E   0.35171  0.71726  0.62500
E18   E   0.35171  0.96726  0.53842
E19   E   0.46726  0.39829  0.37500
E20   E   0.46726  0.89829  0.62500
E21   E   0.50000  0.00000  0.50000
E22   E   0.50000  0.50000  0.50000
E23   E   0.53274  0.10171  0.37500
E24   E   0.53274  0.60171  0.62500
E25   E   0.64829  0.03274  0.46158
E26   E   0.64829  0.28274  0.37500
E27   E   0.64829  0.53274  0.53842
E28   E   0.64829  0.78274  0.62500
E29   E   0.71726  0.39829  0.28842
E30   E   0.71726  0.89829  0.71158
E31   E   0.75000  0.25000  0.25000
E32   E   0.75000  0.75000  0.75000
E33   E   0.78274  0.10171  0.21158
E34   E   0.78274  0.60171  0.78842
E35   E   0.85171  0.21726  0.12500
E36   E   0.85171  0.46726  0.03842
E37   E   0.85171  0.71726  0.87500
E38   E   0.85171  0.96726  0.96158
E39   E   0.96726  0.39829  0.12500
E40   E   0.96726  0.89829  0.87500
loop_
