data_yfr_I41/acd:2  hall_number: 429, V_con: 5
_audit_creation_date              2025-03-05
_audit_creation_method            'MOFbuilder_1.0'
_symmetry_space_group_name_H-M    'P1'
_symmetry_Int_Tables_number       1
_symmetry_cell_setting            triclinic
loop_
_symmetry_equiv_pos_as_xyz
  x,y,z
_cell_length_a                    39.0574
_cell_length_b                    39.0574
_cell_length_c                    31.7878
_cell_angle_alpha                 90.0
_cell_angle_beta                  90.0
_cell_angle_gamma                 90.0
loop_
_atom_site_label
_atom_site_type_symbol
_atom_site_fract_x
_atom_site_fract_y
_atom_site_fract_z
V1    V   0.03726  0.12752  0.26378
V2    V   0.03726  0.37248  0.76378
V3    V   0.03726  0.62752  0.73622
V4    V   0.03726  0.87248  0.23622
V5    V   0.12248  0.21274  0.98622
V6    V   0.12248  0.28726  0.48622
V7    V   0.12248  0.71274  0.01378
V8    V   0.12248  0.78726  0.51378
V9    V   0.37752  0.21274  0.01378
V10   V   0.37752  0.28726  0.51378
V11   V   0.37752  0.71274  0.98622
V12   V   0.37752  0.78726  0.48622
V13   V   0.46274  0.12752  0.73622
V14   V   0.46274  0.37248  0.23622
V15   V   0.46274  0.62752  0.26378
V16   V   0.46274  0.87248  0.76378
V17   V   0.53726  0.12752  0.23622
V18   V   0.53726  0.37248  0.73622
V19   V   0.53726  0.62752  0.76378
V20   V   0.53726  0.87248  0.26378
V21   V   0.62248  0.21274  0.51378
V22   V   0.62248  0.28726  0.01378
V23   V   0.62248  0.71274  0.48622
V24   V   0.62248  0.78726  0.98622
V25   V   0.87752  0.21274  0.48622
V26   V   0.87752  0.28726  0.98622
V27   V   0.87752  0.71274  0.51378
V28   V   0.87752  0.78726  0.01378
V29   V   0.96274  0.12752  0.76378
V30   V   0.96274  0.37248  0.26378
V31   V   0.96274  0.62752  0.23622
V32   V   0.96274  0.87248  0.73622
E1    E   0.00000  0.25000  0.26378
E2    E   0.00000  0.25000  0.48622
E3    E   0.00000  0.25000  0.76378
E4    E   0.00000  0.25000  0.98622
E5    E   0.00000  0.75000  0.01378
E6    E   0.00000  0.75000  0.23622
E7    E   0.00000  0.75000  0.51378
E8    E   0.00000  0.75000  0.73622
E9    E   0.03726  0.00000  0.25000
E10   E   0.03726  0.50000  0.75000
E11   E   0.04261  0.17013  0.87500
E12   E   0.04261  0.32987  0.37500
E13   E   0.04261  0.67013  0.12500
E14   E   0.04261  0.82987  0.62500
E15   E   0.07987  0.17013  0.12500
E16   E   0.07987  0.20739  0.37500
E17   E   0.07987  0.29261  0.87500
E18   E   0.07987  0.32987  0.62500
E19   E   0.07987  0.67013  0.87500
E20   E   0.07987  0.70739  0.62500
E21   E   0.07987  0.79261  0.12500
E22   E   0.07987  0.82987  0.37500
E23   E   0.25000  0.21274  0.00000
E24   E   0.25000  0.28726  0.50000
E25   E   0.25000  0.71274  0.00000
E26   E   0.25000  0.78726  0.50000
E27   E   0.42013  0.17013  0.87500
E28   E   0.42013  0.20739  0.62500
E29   E   0.42013  0.29261  0.12500
E30   E   0.42013  0.32987  0.37500
E31   E   0.42013  0.67013  0.12500
E32   E   0.42013  0.70739  0.37500
E33   E   0.42013  0.79261  0.87500
E34   E   0.42013  0.82987  0.62500
E35   E   0.45739  0.17013  0.12500
E36   E   0.45739  0.32987  0.62500
E37   E   0.45739  0.67013  0.87500
E38   E   0.45739  0.82987  0.37500
E39   E   0.46274  0.00000  0.75000
E40   E   0.46274  0.50000  0.25000
E41   E   0.50000  0.25000  0.01378
E42   E   0.50000  0.25000  0.23622
E43   E   0.50000  0.25000  0.51378
E44   E   0.50000  0.25000  0.73622
E45   E   0.50000  0.75000  0.26378
E46   E   0.50000  0.75000  0.48622
E47   E   0.50000  0.75000  0.76378
E48   E   0.50000  0.75000  0.98622
E49   E   0.53726  0.00000  0.25000
E50   E   0.53726  0.50000  0.75000
E51   E   0.54261  0.17013  0.62500
E52   E   0.54261  0.32987  0.12500
E53   E   0.54261  0.67013  0.37500
E54   E   0.54261  0.82987  0.87500
E55   E   0.57987  0.17013  0.37500
E56   E   0.57987  0.20739  0.12500
E57   E   0.57987  0.29261  0.62500
E58   E   0.57987  0.32987  0.87500
E59   E   0.57987  0.67013  0.62500
E60   E   0.57987  0.70739  0.87500
E61   E   0.57987  0.79261  0.37500
E62   E   0.57987  0.82987  0.12500
E63   E   0.75000  0.21274  0.50000
E64   E   0.75000  0.28726  0.00000
E65   E   0.75000  0.71274  0.50000
E66   E   0.75000  0.78726  0.00000
E67   E   0.92013  0.17013  0.62500
E68   E   0.92013  0.20739  0.87500
E69   E   0.92013  0.29261  0.37500
E70   E   0.92013  0.32987  0.12500
E71   E   0.92013  0.67013  0.37500
E72   E   0.92013  0.70739  0.12500
E73   E   0.92013  0.79261  0.62500
E74   E   0.92013  0.82987  0.87500
E75   E   0.95739  0.17013  0.37500
E76   E   0.95739  0.32987  0.87500
E77   E   0.95739  0.67013  0.62500
E78   E   0.95739  0.82987  0.12500
E79   E   0.96274  0.00000  0.75000
E80   E   0.96274  0.50000  0.25000
loop_
