data_zbn_I41/amd:2  hall_number: 427, V_con: 6, EC_con: 3
_audit_creation_date              2025-03-05
_audit_creation_method            'MOFbuilder_1.0'
_symmetry_space_group_name_H-M    'P1'
_symmetry_Int_Tables_number       1
_symmetry_cell_setting            triclinic
loop_
_symmetry_equiv_pos_as_xyz
  x,y,z
_cell_length_a                    73.8799
_cell_length_b                    73.8799
_cell_length_c                    27.1488
_cell_angle_alpha                 90.0
_cell_angle_beta                  90.0
_cell_angle_gamma                 90.0
loop_
_atom_site_label
_atom_site_type_symbol
_atom_site_fract_x
_atom_site_fract_y
_atom_site_fract_z
V1    V   0.18929  0.03247  0.66339
V2    V   0.18929  0.46753  0.66339
V3    V   0.18929  0.53247  0.33661
V4    V   0.18929  0.96753  0.33661
V5    V   0.21753  0.06071  0.08661
V6    V   0.21753  0.43929  0.08661
V7    V   0.21753  0.56071  0.91339
V8    V   0.21753  0.93929  0.91339
V9    V   0.28247  0.06071  0.41339
V10   V   0.28247  0.43929  0.41339
V11   V   0.28247  0.56071  0.58661
V12   V   0.28247  0.93929  0.58661
V13   V   0.31071  0.03247  0.83661
V14   V   0.31071  0.46753  0.83661
V15   V   0.31071  0.53247  0.16339
V16   V   0.31071  0.96753  0.16339
V17   V   0.68929  0.03247  0.83661
V18   V   0.68929  0.46753  0.83661
V19   V   0.68929  0.53247  0.16339
V20   V   0.68929  0.96753  0.16339
V21   V   0.71753  0.06071  0.41339
V22   V   0.71753  0.43929  0.41339
V23   V   0.71753  0.56071  0.58661
V24   V   0.71753  0.93929  0.58661
V25   V   0.78247  0.06071  0.08661
V26   V   0.78247  0.43929  0.08661
V27   V   0.78247  0.56071  0.91339
V28   V   0.78247  0.93929  0.91339
V29   V   0.81071  0.03247  0.66339
V30   V   0.81071  0.46753  0.66339
V31   V   0.81071  0.53247  0.33661
V32   V   0.81071  0.96753  0.33661
EC1    EC   0.06778  0.01644  0.82143
EC2    EC   0.06778  0.48356  0.82143
EC3    EC   0.06778  0.51644  0.17857
EC4    EC   0.06778  0.98356  0.17857
EC5    EC   0.23356  0.18222  0.92857
EC6    EC   0.23356  0.31778  0.92857
EC7    EC   0.23356  0.68222  0.07143
EC8    EC   0.23356  0.81778  0.07143
EC9    EC   0.26644  0.18222  0.57143
EC10   EC   0.26644  0.31778  0.57143
EC11   EC   0.26644  0.68222  0.42857
EC12   EC   0.26644  0.81778  0.42857
EC13   EC   0.43222  0.01644  0.67857
EC14   EC   0.43222  0.48356  0.67857
EC15   EC   0.43222  0.51644  0.32143
EC16   EC   0.43222  0.98356  0.32143
EC17   EC   0.56778  0.01644  0.67857
EC18   EC   0.56778  0.48356  0.67857
EC19   EC   0.56778  0.51644  0.32143
EC20   EC   0.56778  0.98356  0.32143
EC21   EC   0.73356  0.18222  0.57143
EC22   EC   0.73356  0.31778  0.57143
EC23   EC   0.73356  0.68222  0.42857
EC24   EC   0.73356  0.81778  0.42857
EC25   EC   0.76644  0.18222  0.92857
EC26   EC   0.76644  0.31778  0.92857
EC27   EC   0.76644  0.68222  0.07143
EC28   EC   0.76644  0.81778  0.07143
EC29   EC   0.93222  0.01644  0.82143
EC30   EC   0.93222  0.48356  0.82143
EC31   EC   0.93222  0.51644  0.17857
EC32   EC   0.93222  0.98356  0.17857
E1    E   0.00000  0.01644  0.82143
E2    E   0.00000  0.48356  0.82143
E3    E   0.00000  0.51644  0.17857
E4    E   0.00000  0.98356  0.17857
E5    E   0.06778  0.00000  0.00000
E6    E   0.06778  0.50000  0.00000
E7    E   0.12853  0.02446  0.74241
E8    E   0.12853  0.47554  0.74241
E9    E   0.12853  0.52446  0.25759
E10   E   0.12853  0.97554  0.25759
E11   E   0.18929  0.00000  0.50000
E12   E   0.18929  0.50000  0.50000
E13   E   0.20341  0.01412  0.21161
E14   E   0.20341  0.48588  0.21161
E15   E   0.20341  0.51412  0.78839
E16   E   0.20341  0.98588  0.78839
E17   E   0.21753  0.00000  0.00000
E18   E   0.21753  0.50000  0.00000
E19   E   0.22554  0.12147  0.00759
E20   E   0.22554  0.37853  0.00759
E21   E   0.22554  0.62147  0.99241
E22   E   0.22554  0.87853  0.99241
E23   E   0.23356  0.25000  0.92857
E24   E   0.23356  0.75000  0.07143
E25   E   0.23588  0.01412  0.37500
E26   E   0.23588  0.04659  0.53839
E27   E   0.23588  0.45341  0.53839
E28   E   0.23588  0.48588  0.37500
E29   E   0.23588  0.51412  0.62500
E30   E   0.23588  0.54659  0.46161
E31   E   0.23588  0.95341  0.46161
E32   E   0.23588  0.98588  0.62500
E33   E   0.23588  0.01412  0.37500
E34   E   0.23588  0.48588  0.37500
E35   E   0.23588  0.51412  0.62500
E36   E   0.23588  0.98588  0.62500
E37   E   0.25000  0.03247  0.75000
E38   E   0.25000  0.06071  0.25000
E39   E   0.25000  0.18222  0.75000
E40   E   0.25000  0.31778  0.75000
E41   E   0.25000  0.43929  0.25000
E42   E   0.25000  0.46753  0.75000
E43   E   0.25000  0.53247  0.25000
E44   E   0.25000  0.56071  0.75000
E45   E   0.25000  0.68222  0.25000
E46   E   0.25000  0.81778  0.25000
E47   E   0.25000  0.93929  0.75000
E48   E   0.25000  0.96753  0.25000
E49   E   0.26412  0.01412  0.12500
E50   E   0.26412  0.01412  0.12500
E51   E   0.26412  0.04659  0.96161
E52   E   0.26412  0.45341  0.96161
E53   E   0.26412  0.48588  0.12500
E54   E   0.26412  0.51412  0.87500
E55   E   0.26412  0.54659  0.03839
E56   E   0.26412  0.95341  0.03839
E57   E   0.26412  0.98588  0.87500
E58   E   0.26644  0.25000  0.57143
E59   E   0.26644  0.75000  0.42857
E60   E   0.27446  0.12147  0.49241
E61   E   0.27446  0.37853  0.49241
E62   E   0.27446  0.62147  0.50759
E63   E   0.27446  0.87853  0.50759
E64   E   0.28247  0.00000  0.50000
E65   E   0.28247  0.50000  0.50000
E66   E   0.29659  0.01412  0.28839
E67   E   0.29659  0.48588  0.28839
E68   E   0.29659  0.51412  0.71161
E69   E   0.29659  0.98588  0.71161
E70   E   0.31071  0.00000  0.00000
E71   E   0.31071  0.50000  0.00000
E72   E   0.37147  0.02446  0.75759
E73   E   0.37147  0.47554  0.75759
E74   E   0.37147  0.52446  0.24241
E75   E   0.37147  0.97554  0.24241
E76   E   0.43222  0.00000  0.50000
E77   E   0.43222  0.50000  0.50000
E78   E   0.50000  0.01644  0.67857
E79   E   0.50000  0.48356  0.67857
E80   E   0.50000  0.51644  0.32143
E81   E   0.50000  0.98356  0.32143
E82   E   0.56778  0.00000  0.50000
E83   E   0.56778  0.50000  0.50000
E84   E   0.62853  0.02446  0.75759
E85   E   0.62853  0.47554  0.75759
E86   E   0.62853  0.52446  0.24241
E87   E   0.62853  0.97554  0.24241
E88   E   0.68929  0.00000  0.00000
E89   E   0.68929  0.50000  0.00000
E90   E   0.70341  0.01412  0.28839
E91   E   0.70341  0.48588  0.28839
E92   E   0.70341  0.51412  0.71161
E93   E   0.70341  0.98588  0.71161
E94   E   0.71753  0.00000  0.50000
E95   E   0.71753  0.50000  0.50000
E96   E   0.72554  0.12147  0.49241
E97   E   0.72554  0.37853  0.49241
E98   E   0.72554  0.62147  0.50759
E99   E   0.72554  0.87853  0.50759
E100  E   0.73356  0.25000  0.57143
E101  E   0.73356  0.75000  0.42857
E102  E   0.73588  0.01412  0.12500
E103  E   0.73588  0.01412  0.12500
E104  E   0.73588  0.04659  0.96161
E105  E   0.73588  0.45341  0.96161
E106  E   0.73588  0.48588  0.12500
E107  E   0.73588  0.51412  0.87500
E108  E   0.73588  0.54659  0.03839
E109  E   0.73588  0.95341  0.03839
E110  E   0.73588  0.98588  0.87500
E111  E   0.75000  0.03247  0.75000
E112  E   0.75000  0.06071  0.25000
E113  E   0.75000  0.18222  0.75000
E114  E   0.75000  0.31778  0.75000
E115  E   0.75000  0.43929  0.25000
E116  E   0.75000  0.46753  0.75000
E117  E   0.75000  0.53247  0.25000
E118  E   0.75000  0.56071  0.75000
E119  E   0.75000  0.68222  0.25000
E120  E   0.75000  0.81778  0.25000
E121  E   0.75000  0.93929  0.75000
E122  E   0.75000  0.96753  0.25000
E123  E   0.76412  0.01412  0.37500
E124  E   0.76412  0.01412  0.37500
E125  E   0.76412  0.04659  0.53839
E126  E   0.76412  0.45341  0.53839
E127  E   0.76412  0.48588  0.37500
E128  E   0.76412  0.51412  0.62500
E129  E   0.76412  0.54659  0.46161
E130  E   0.76412  0.95341  0.46161
E131  E   0.76412  0.98588  0.62500
E132  E   0.76644  0.25000  0.92857
E133  E   0.76644  0.75000  0.07143
E134  E   0.77446  0.12147  0.00759
E135  E   0.77446  0.37853  0.00759
E136  E   0.77446  0.62147  0.99241
E137  E   0.77446  0.87853  0.99241
E138  E   0.78247  0.00000  0.00000
E139  E   0.78247  0.50000  0.00000
E140  E   0.79659  0.01412  0.21161
E141  E   0.79659  0.48588  0.21161
E142  E   0.79659  0.51412  0.78839
E143  E   0.79659  0.98588  0.78839
E144  E   0.81071  0.00000  0.50000
E145  E   0.81071  0.50000  0.50000
E146  E   0.87147  0.02446  0.74241
E147  E   0.87147  0.47554  0.74241
E148  E   0.87147  0.52446  0.25759
E149  E   0.87147  0.97554  0.25759
E150  E   0.93222  0.00000  0.00000
E151  E   0.93222  0.50000  0.00000
loop_
