data_zfg_P4/mnc  hall_number: 407, V_con: 5
_audit_creation_date              2025-03-05
_audit_creation_method            'MOFbuilder_1.0'
_symmetry_space_group_name_H-M    'P1'
_symmetry_Int_Tables_number       1
_symmetry_cell_setting            triclinic
loop_
_symmetry_equiv_pos_as_xyz
  x,y,z
_cell_length_a                    23.7792
_cell_length_b                    23.7792
_cell_length_c                    36.7446
_cell_angle_alpha                 90.0
_cell_angle_beta                  90.0
_cell_angle_gamma                 90.0
loop_
_atom_site_label
_atom_site_type_symbol
_atom_site_fract_x
_atom_site_fract_y
_atom_site_fract_z
V1    V   0.04318  0.29421  0.13607
V2    V   0.04318  0.29421  0.86393
V3    V   0.20579  0.45682  0.36393
V4    V   0.20579  0.45682  0.63607
V5    V   0.29421  0.95682  0.13607
V6    V   0.29421  0.95682  0.86393
V7    V   0.45682  0.79421  0.36393
V8    V   0.45682  0.79421  0.63607
V9    V   0.54318  0.20579  0.36393
V10   V   0.54318  0.20579  0.63607
V11   V   0.70579  0.04318  0.13607
V12   V   0.70579  0.04318  0.86393
V13   V   0.79421  0.54318  0.36393
V14   V   0.79421  0.54318  0.63607
V15   V   0.95682  0.70579  0.13607
V16   V   0.95682  0.70579  0.86393
E1    E   0.00000  0.50000  0.13607
E2    E   0.00000  0.50000  0.36393
E3    E   0.00000  0.50000  0.63607
E4    E   0.00000  0.50000  0.86393
E5    E   0.04318  0.29421  0.00000
E6    E   0.12448  0.37552  0.25000
E7    E   0.12448  0.37552  0.75000
E8    E   0.12448  0.37552  0.25000
E9    E   0.12448  0.37552  0.75000
E10   E   0.12552  0.83130  0.13607
E11   E   0.12552  0.83130  0.86393
E12   E   0.16870  0.12552  0.13607
E13   E   0.16870  0.12552  0.86393
E14   E   0.20579  0.45682  0.50000
E15   E   0.29421  0.95682  0.00000
E16   E   0.33130  0.62552  0.36393
E17   E   0.33130  0.62552  0.63607
E18   E   0.37448  0.33130  0.36393
E19   E   0.37448  0.33130  0.63607
E20   E   0.37552  0.87552  0.25000
E21   E   0.37552  0.87552  0.75000
E22   E   0.37552  0.87552  0.25000
E23   E   0.37552  0.87552  0.75000
E24   E   0.45682  0.79421  0.50000
E25   E   0.50000  0.00000  0.13607
E26   E   0.50000  0.00000  0.36393
E27   E   0.50000  0.00000  0.63607
E28   E   0.50000  0.00000  0.86393
E29   E   0.54318  0.20579  0.50000
E30   E   0.62448  0.12448  0.25000
E31   E   0.62448  0.12448  0.75000
E32   E   0.62448  0.12448  0.25000
E33   E   0.62448  0.12448  0.75000
E34   E   0.62552  0.66870  0.36393
E35   E   0.62552  0.66870  0.63607
E36   E   0.66870  0.37448  0.36393
E37   E   0.66870  0.37448  0.63607
E38   E   0.70579  0.04318  0.00000
E39   E   0.79421  0.54318  0.50000
E40   E   0.83130  0.87448  0.13607
E41   E   0.83130  0.87448  0.86393
E42   E   0.87448  0.16870  0.13607
E43   E   0.87448  0.16870  0.86393
E44   E   0.87552  0.62448  0.25000
E45   E   0.87552  0.62448  0.75000
E46   E   0.87552  0.62448  0.25000
E47   E   0.87552  0.62448  0.75000
E48   E   0.95682  0.70579  0.00000
loop_
