data_zfh_P4/ncc:2  hall_number: 411, V_con: 5
_audit_creation_date              2025-03-05
_audit_creation_method            'MOFbuilder_1.0'
_symmetry_space_group_name_H-M    'P1'
_symmetry_Int_Tables_number       1
_symmetry_cell_setting            triclinic
loop_
_symmetry_equiv_pos_as_xyz
  x,y,z
_cell_length_a                    24.2072
_cell_length_b                    24.2072
_cell_length_c                    29.9653
_cell_angle_alpha                 90.0
_cell_angle_beta                  90.0
_cell_angle_gamma                 90.0
loop_
_atom_site_label
_atom_site_type_symbol
_atom_site_fract_x
_atom_site_fract_y
_atom_site_fract_z
V1    V   0.03690  0.69508  0.60972
V2    V   0.03690  0.80492  0.10972
V3    V   0.19508  0.53690  0.89028
V4    V   0.19508  0.96310  0.39028
V5    V   0.30492  0.53690  0.39028
V6    V   0.30492  0.96310  0.89028
V7    V   0.46310  0.69508  0.10972
V8    V   0.46310  0.80492  0.60972
V9    V   0.53690  0.19508  0.39028
V10   V   0.53690  0.30492  0.89028
V11   V   0.69508  0.03690  0.10972
V12   V   0.69508  0.46310  0.60972
V13   V   0.80492  0.03690  0.60972
V14   V   0.80492  0.46310  0.10972
V15   V   0.96310  0.19508  0.89028
V16   V   0.96310  0.30492  0.39028
E1    E   0.07909  0.13401  0.39028
E2    E   0.07909  0.36599  0.89028
E3    E   0.11599  0.61599  0.75000
E4    E   0.11599  0.67091  0.00000
E5    E   0.11599  0.82909  0.50000
E6    E   0.11599  0.88401  0.25000
E7    E   0.11599  0.61599  0.75000
E8    E   0.11599  0.88401  0.25000
E9    E   0.13401  0.07909  0.89028
E10   E   0.13401  0.42091  0.39028
E11   E   0.17091  0.61599  0.50000
E12   E   0.17091  0.88401  0.00000
E13   E   0.32909  0.61599  0.00000
E14   E   0.32909  0.88401  0.50000
E15   E   0.36599  0.07909  0.39028
E16   E   0.36599  0.42091  0.89028
E17   E   0.38401  0.61599  0.25000
E18   E   0.38401  0.88401  0.75000
E19   E   0.38401  0.61599  0.25000
E20   E   0.38401  0.67091  0.50000
E21   E   0.38401  0.82909  0.00000
E22   E   0.38401  0.88401  0.75000
E23   E   0.42091  0.13401  0.89028
E24   E   0.42091  0.36599  0.39028
E25   E   0.57909  0.63401  0.60972
E26   E   0.57909  0.86599  0.10972
E27   E   0.61599  0.11599  0.25000
E28   E   0.61599  0.11599  0.25000
E29   E   0.61599  0.17091  0.00000
E30   E   0.61599  0.32909  0.50000
E31   E   0.61599  0.38401  0.75000
E32   E   0.61599  0.38401  0.75000
E33   E   0.63401  0.57909  0.10972
E34   E   0.63401  0.92091  0.60972
E35   E   0.67091  0.11599  0.50000
E36   E   0.67091  0.38401  0.00000
E37   E   0.82909  0.11599  0.00000
E38   E   0.82909  0.38401  0.50000
E39   E   0.86599  0.57909  0.60972
E40   E   0.86599  0.92091  0.10972
E41   E   0.88401  0.11599  0.75000
E42   E   0.88401  0.11599  0.75000
E43   E   0.88401  0.17091  0.50000
E44   E   0.88401  0.32909  0.00000
E45   E   0.88401  0.38401  0.25000
E46   E   0.88401  0.38401  0.25000
E47   E   0.92091  0.63401  0.10972
E48   E   0.92091  0.86599  0.60972
loop_
