data_zfj_P42/nbc:2  hall_number: 415, V_con: 5
_audit_creation_date              2025-03-05
_audit_creation_method            'MOFbuilder_1.0'
_symmetry_space_group_name_H-M    'P1'
_symmetry_Int_Tables_number       1
_symmetry_cell_setting            triclinic
loop_
_symmetry_equiv_pos_as_xyz
  x,y,z
_cell_length_a                    19.985
_cell_length_b                    19.985
_cell_length_c                    36.079
_cell_angle_alpha                 90.0
_cell_angle_beta                  90.0
_cell_angle_gamma                 90.0
loop_
_atom_site_label
_atom_site_type_symbol
_atom_site_fract_x
_atom_site_fract_y
_atom_site_fract_z
V1    V   0.00967  0.68045  0.86688
V2    V   0.00967  0.81955  0.13312
V3    V   0.18045  0.50967  0.36688
V4    V   0.18045  0.99033  0.63312
V5    V   0.31955  0.50967  0.63312
V6    V   0.31955  0.99033  0.36688
V7    V   0.49033  0.68045  0.13312
V8    V   0.49033  0.81955  0.86688
V9    V   0.50967  0.18045  0.13312
V10   V   0.50967  0.31955  0.86688
V11   V   0.68045  0.00967  0.63312
V12   V   0.68045  0.49033  0.36688
V13   V   0.81955  0.00967  0.36688
V14   V   0.81955  0.49033  0.63312
V15   V   0.99033  0.18045  0.86688
V16   V   0.99033  0.31955  0.13312
E1    E   0.00000  0.06955  0.13312
E2    E   0.00000  0.43045  0.86688
E3    E   0.00000  0.56955  0.13312
E4    E   0.00000  0.93045  0.86688
E5    E   0.00967  0.75000  0.00000
E6    E   0.06955  0.00000  0.36688
E7    E   0.06955  0.50000  0.63312
E8    E   0.08539  0.08539  0.75000
E9    E   0.08539  0.41461  0.25000
E10   E   0.08539  0.08539  0.75000
E11   E   0.08539  0.41461  0.25000
E12   E   0.25000  0.50967  0.50000
E13   E   0.25000  0.75000  0.13312
E14   E   0.25000  0.75000  0.36688
E15   E   0.25000  0.75000  0.63312
E16   E   0.25000  0.75000  0.86688
E17   E   0.25000  0.99033  0.50000
E18   E   0.41461  0.08539  0.25000
E19   E   0.41461  0.41461  0.75000
E20   E   0.41461  0.08539  0.25000
E21   E   0.41461  0.41461  0.75000
E22   E   0.43045  0.00000  0.63312
E23   E   0.43045  0.50000  0.36688
E24   E   0.49033  0.75000  0.00000
E25   E   0.50000  0.06955  0.86688
E26   E   0.50000  0.43045  0.13312
E27   E   0.50000  0.56955  0.86688
E28   E   0.50000  0.93045  0.13312
E29   E   0.50967  0.25000  0.00000
E30   E   0.56955  0.00000  0.36688
E31   E   0.56955  0.50000  0.63312
E32   E   0.58539  0.58539  0.25000
E33   E   0.58539  0.91461  0.75000
E34   E   0.58539  0.58539  0.25000
E35   E   0.58539  0.91461  0.75000
E36   E   0.75000  0.00967  0.50000
E37   E   0.75000  0.25000  0.13312
E38   E   0.75000  0.25000  0.36688
E39   E   0.75000  0.25000  0.63312
E40   E   0.75000  0.25000  0.86688
E41   E   0.75000  0.49033  0.50000
E42   E   0.91461  0.58539  0.75000
E43   E   0.91461  0.91461  0.25000
E44   E   0.91461  0.58539  0.75000
E45   E   0.91461  0.91461  0.25000
E46   E   0.93045  0.00000  0.63312
E47   E   0.93045  0.50000  0.36688
E48   E   0.99033  0.25000  0.00000
loop_
