data_zfp_P42/mbc  hall_number: 418, V_con: 5
_audit_creation_date              2025-03-05
_audit_creation_method            'MOFbuilder_1.0'
_symmetry_space_group_name_H-M    'P1'
_symmetry_Int_Tables_number       1
_symmetry_cell_setting            triclinic
loop_
_symmetry_equiv_pos_as_xyz
  x,y,z
_cell_length_a                    19.8158
_cell_length_b                    19.8158
_cell_length_c                    39.4225
_cell_angle_alpha                 90.0
_cell_angle_beta                  90.0
_cell_angle_gamma                 90.0
loop_
_atom_site_label
_atom_site_type_symbol
_atom_site_fract_x
_atom_site_fract_y
_atom_site_fract_z
V1    V   0.13071  0.28417  0.12683
V2    V   0.13071  0.28417  0.87317
V3    V   0.21583  0.36929  0.37317
V4    V   0.21583  0.36929  0.62683
V5    V   0.28417  0.86929  0.37317
V6    V   0.28417  0.86929  0.62683
V7    V   0.36929  0.78417  0.12683
V8    V   0.36929  0.78417  0.87317
V9    V   0.63071  0.21583  0.12683
V10   V   0.63071  0.21583  0.87317
V11   V   0.71583  0.13071  0.37317
V12   V   0.71583  0.13071  0.62683
V13   V   0.78417  0.63071  0.37317
V14   V   0.78417  0.63071  0.62683
V15   V   0.86929  0.71583  0.12683
V16   V   0.86929  0.71583  0.87317
E1    E   0.00000  0.50000  0.12683
E2    E   0.00000  0.50000  0.37317
E3    E   0.00000  0.50000  0.62683
E4    E   0.00000  0.50000  0.87317
E5    E   0.11929  0.75000  0.12683
E6    E   0.11929  0.75000  0.87317
E7    E   0.13071  0.28417  0.00000
E8    E   0.17327  0.32673  0.25000
E9    E   0.17327  0.32673  0.75000
E10   E   0.17327  0.32673  0.25000
E11   E   0.17327  0.32673  0.75000
E12   E   0.21583  0.36929  0.50000
E13   E   0.25000  0.11929  0.37317
E14   E   0.25000  0.11929  0.62683
E15   E   0.25000  0.61929  0.37317
E16   E   0.25000  0.61929  0.62683
E17   E   0.28417  0.86929  0.50000
E18   E   0.32673  0.82673  0.25000
E19   E   0.32673  0.82673  0.75000
E20   E   0.32673  0.82673  0.25000
E21   E   0.32673  0.82673  0.75000
E22   E   0.36929  0.78417  0.00000
E23   E   0.38071  0.25000  0.12683
E24   E   0.38071  0.25000  0.87317
E25   E   0.50000  0.00000  0.12683
E26   E   0.50000  0.00000  0.37317
E27   E   0.50000  0.00000  0.62683
E28   E   0.50000  0.00000  0.87317
E29   E   0.61929  0.75000  0.12683
E30   E   0.61929  0.75000  0.87317
E31   E   0.63071  0.21583  0.00000
E32   E   0.67327  0.17327  0.25000
E33   E   0.67327  0.17327  0.75000
E34   E   0.67327  0.17327  0.25000
E35   E   0.67327  0.17327  0.75000
E36   E   0.71583  0.13071  0.50000
E37   E   0.75000  0.38071  0.37317
E38   E   0.75000  0.38071  0.62683
E39   E   0.75000  0.88071  0.37317
E40   E   0.75000  0.88071  0.62683
E41   E   0.78417  0.63071  0.50000
E42   E   0.82673  0.67327  0.25000
E43   E   0.82673  0.67327  0.75000
E44   E   0.86929  0.71583  0.00000
E45   E   0.88071  0.25000  0.12683
E46   E   0.88071  0.25000  0.87317
loop_
