data_zfy_I41/a:2  hall_number: 365, V_con: 5
_audit_creation_date              2025-03-05
_audit_creation_method            'MOFbuilder_1.0'
_symmetry_space_group_name_H-M    'P1'
_symmetry_Int_Tables_number       1
_symmetry_cell_setting            triclinic
loop_
_symmetry_equiv_pos_as_xyz
  x,y,z
_cell_length_a                    32.0671
_cell_length_b                    32.0671
_cell_length_c                    17.3101
_cell_angle_alpha                 90.0
_cell_angle_beta                  90.0
_cell_angle_gamma                 90.0
loop_
_atom_site_label
_atom_site_type_symbol
_atom_site_fract_x
_atom_site_fract_y
_atom_site_fract_z
V1    V   0.06634  0.07607  0.77984
V2    V   0.06634  0.57607  0.22016
V3    V   0.17393  0.31634  0.47016
V4    V   0.17393  0.81634  0.52984
V5    V   0.32607  0.18366  0.02984
V6    V   0.32607  0.68366  0.97016
V7    V   0.43366  0.42393  0.72016
V8    V   0.43366  0.92393  0.27984
V9    V   0.56634  0.07607  0.72016
V10   V   0.56634  0.57607  0.27984
V11   V   0.67393  0.31634  0.02984
V12   V   0.67393  0.81634  0.97016
V13   V   0.82607  0.18366  0.47016
V14   V   0.82607  0.68366  0.52984
V15   V   0.93366  0.42393  0.77984
V16   V   0.93366  0.92393  0.22016
E1    E   0.00000  0.00000  0.00000
E2    E   0.00000  0.50000  0.00000
E3    E   0.05379  0.37013  0.62500
E4    E   0.05379  0.87013  0.37500
E5    E   0.12013  0.19621  0.62500
E6    E   0.12013  0.44621  0.34516
E7    E   0.12013  0.69621  0.37500
E8    E   0.12013  0.94621  0.65484
E9    E   0.19621  0.12987  0.90484
E10   E   0.19621  0.62987  0.09516
E11   E   0.25000  0.25000  0.25000
E12   E   0.25000  0.75000  0.75000
E13   E   0.30379  0.37013  0.59516
E14   E   0.30379  0.87013  0.40484
E15   E   0.37987  0.05379  0.15484
E16   E   0.37987  0.30379  0.87500
E17   E   0.37987  0.55379  0.84516
E18   E   0.37987  0.80379  0.12500
E19   E   0.44621  0.12987  0.87500
E20   E   0.44621  0.62987  0.12500
E21   E   0.50000  0.00000  0.50000
E22   E   0.50000  0.50000  0.50000
E23   E   0.55379  0.37013  0.87500
E24   E   0.55379  0.87013  0.12500
E25   E   0.62013  0.19621  0.87500
E26   E   0.62013  0.44621  0.15484
E27   E   0.62013  0.69621  0.12500
E28   E   0.62013  0.94621  0.84516
E29   E   0.69621  0.12987  0.59516
E30   E   0.69621  0.62987  0.40484
E31   E   0.75000  0.25000  0.25000
E32   E   0.75000  0.75000  0.75000
E33   E   0.80379  0.37013  0.90484
E34   E   0.80379  0.87013  0.09516
E35   E   0.87987  0.05379  0.34516
E36   E   0.87987  0.30379  0.62500
E37   E   0.87987  0.55379  0.65484
E38   E   0.87987  0.80379  0.37500
E39   E   0.94621  0.12987  0.62500
E40   E   0.94621  0.62987  0.37500
loop_
