data_zni_I41/acd:2  hall_number: 429, V_con: 4
_audit_creation_date              2025-03-05
_audit_creation_method            'MOFbuilder_1.0'
_symmetry_space_group_name_H-M    'P1'
_symmetry_Int_Tables_number       1
_symmetry_cell_setting            triclinic
loop_
_symmetry_equiv_pos_as_xyz
  x,y,z
_cell_length_a                    42.1148
_cell_length_b                    42.1148
_cell_length_c                    19.155
_cell_angle_alpha                 90.0
_cell_angle_beta                  90.0
_cell_angle_gamma                 90.0
loop_
_atom_site_label
_atom_site_type_symbol
_atom_site_fract_x
_atom_site_fract_y
_atom_site_fract_z
V1    V   0.06898  0.09767  0.39841
V2    V   0.06898  0.40233  0.89841
V3    V   0.06898  0.59767  0.60159
V4    V   0.06898  0.90233  0.10159
V5    V   0.15233  0.18102  0.85159
V6    V   0.15233  0.31898  0.35159
V7    V   0.15233  0.68102  0.14841
V8    V   0.15233  0.81898  0.64841
V9    V   0.34767  0.18102  0.14841
V10   V   0.34767  0.31898  0.64841
V11   V   0.34767  0.68102  0.85159
V12   V   0.34767  0.81898  0.35159
V13   V   0.43102  0.09767  0.60159
V14   V   0.43102  0.40233  0.10159
V15   V   0.43102  0.59767  0.39841
V16   V   0.43102  0.90233  0.89841
V17   V   0.56898  0.09767  0.10159
V18   V   0.56898  0.40233  0.60159
V19   V   0.56898  0.59767  0.89841
V20   V   0.56898  0.90233  0.39841
V21   V   0.65233  0.18102  0.64841
V22   V   0.65233  0.31898  0.14841
V23   V   0.65233  0.68102  0.35159
V24   V   0.65233  0.81898  0.85159
V25   V   0.84767  0.18102  0.35159
V26   V   0.84767  0.31898  0.85159
V27   V   0.84767  0.68102  0.64841
V28   V   0.84767  0.81898  0.14841
V29   V   0.93102  0.09767  0.89841
V30   V   0.93102  0.40233  0.39841
V31   V   0.93102  0.59767  0.10159
V32   V   0.93102  0.90233  0.60159
E1    E   0.04168  0.13934  0.87500
E2    E   0.04168  0.36066  0.37500
E3    E   0.04168  0.63934  0.12500
E4    E   0.04168  0.86066  0.62500
E5    E   0.06898  0.00000  0.25000
E6    E   0.06898  0.50000  0.75000
E7    E   0.11066  0.13934  0.62500
E8    E   0.11066  0.20832  0.37500
E9    E   0.11066  0.29168  0.87500
E10   E   0.11066  0.36066  0.12500
E11   E   0.11066  0.63934  0.37500
E12   E   0.11066  0.70832  0.62500
E13   E   0.11066  0.79168  0.12500
E14   E   0.11066  0.86066  0.87500
E15   E   0.11066  0.13934  0.62500
E16   E   0.11066  0.36066  0.12500
E17   E   0.11066  0.63934  0.37500
E18   E   0.11066  0.86066  0.87500
E19   E   0.25000  0.18102  0.00000
E20   E   0.25000  0.31898  0.50000
E21   E   0.25000  0.68102  0.00000
E22   E   0.25000  0.81898  0.50000
E23   E   0.38934  0.13934  0.37500
E24   E   0.38934  0.13934  0.37500
E25   E   0.38934  0.20832  0.62500
E26   E   0.38934  0.29168  0.12500
E27   E   0.38934  0.36066  0.87500
E28   E   0.38934  0.63934  0.62500
E29   E   0.38934  0.70832  0.37500
E30   E   0.38934  0.79168  0.87500
E31   E   0.38934  0.86066  0.12500
E32   E   0.43102  0.00000  0.75000
E33   E   0.43102  0.50000  0.25000
E34   E   0.45832  0.13934  0.12500
E35   E   0.45832  0.36066  0.62500
E36   E   0.45832  0.63934  0.87500
E37   E   0.45832  0.86066  0.37500
E38   E   0.54168  0.13934  0.62500
E39   E   0.54168  0.36066  0.12500
E40   E   0.54168  0.63934  0.37500
E41   E   0.54168  0.86066  0.87500
E42   E   0.56898  0.00000  0.25000
E43   E   0.56898  0.50000  0.75000
E44   E   0.61066  0.13934  0.87500
E45   E   0.61066  0.13934  0.87500
E46   E   0.61066  0.20832  0.12500
E47   E   0.61066  0.29168  0.62500
E48   E   0.61066  0.36066  0.37500
E49   E   0.61066  0.63934  0.12500
E50   E   0.61066  0.70832  0.87500
E51   E   0.61066  0.79168  0.37500
E52   E   0.61066  0.86066  0.62500
E53   E   0.75000  0.18102  0.50000
E54   E   0.75000  0.31898  0.00000
E55   E   0.75000  0.68102  0.50000
E56   E   0.75000  0.81898  0.00000
E57   E   0.88934  0.13934  0.12500
E58   E   0.88934  0.13934  0.12500
E59   E   0.88934  0.20832  0.87500
E60   E   0.88934  0.29168  0.37500
E61   E   0.88934  0.36066  0.62500
E62   E   0.88934  0.63934  0.87500
E63   E   0.88934  0.70832  0.12500
E64   E   0.88934  0.79168  0.62500
E65   E   0.88934  0.86066  0.37500
E66   E   0.93102  0.00000  0.75000
E67   E   0.93102  0.50000  0.25000
E68   E   0.95832  0.13934  0.37500
E69   E   0.95832  0.36066  0.87500
E70   E   0.95832  0.63934  0.62500
E71   E   0.95832  0.86066  0.12500
loop_
