data_znz_P63/mmc  hall_number: 488, V_con: 6, EC_con: 6
_audit_creation_date              2025-03-05
_audit_creation_method            'MOFbuilder_1.0'
_symmetry_space_group_name_H-M    'P1'
_symmetry_Int_Tables_number       1
_symmetry_cell_setting            triclinic
loop_
_symmetry_equiv_pos_as_xyz
  x,y,z
_cell_length_a                    19.9999
_cell_length_b                    19.9999
_cell_length_c                    32.6601
_cell_angle_alpha                 90.0
_cell_angle_beta                  90.0
_cell_angle_gamma                 120.0
loop_
_atom_site_label
_atom_site_type_symbol
_atom_site_fract_x
_atom_site_fract_y
_atom_site_fract_z
V1    V   0.00000  0.00000  0.00000
V2    V   0.00000  0.00000  0.50000
EC1    EC   0.16666  0.33333  0.75000
EC2    EC   0.16666  0.83333  0.75000
EC3    EC   0.16667  0.33333  0.75000
EC4    EC   0.16667  0.83334  0.75000
EC5    EC   0.33333  0.16666  0.25000
EC6    EC   0.33333  0.16667  0.25000
EC7    EC   0.66667  0.83333  0.75000
EC8    EC   0.66667  0.83334  0.75000
EC9    EC   0.83333  0.16666  0.25000
EC10   EC   0.83333  0.66667  0.25000
EC11   EC   0.83334  0.16667  0.25000
EC12   EC   0.83334  0.66667  0.25000
E1    E   0.08333  0.16666  0.62500
E2    E   0.08333  0.16666  0.87500
E3    E   0.08333  0.16667  0.25000
E4    E   0.08333  0.91666  0.25000
E5    E   0.08333  0.91667  0.62500
E6    E   0.08333  0.91667  0.87500
E7    E   0.08334  0.16667  0.25000
E8    E   0.08334  0.91667  0.25000
E9    E   0.16666  0.08333  0.12500
E10   E   0.16666  0.08333  0.37500
E11   E   0.16667  0.08333  0.75000
E12   E   0.16667  0.08334  0.75000
E13   E   0.16667  0.58333  0.75000
E14   E   0.16667  0.58334  0.75000
E15   E   0.41666  0.58333  0.75000
E16   E   0.41666  0.83333  0.75000
E17   E   0.41667  0.58334  0.75000
E18   E   0.41667  0.83333  0.75000
E19   E   0.58333  0.16667  0.25000
E20   E   0.58333  0.41666  0.25000
E21   E   0.58334  0.16667  0.25000
E22   E   0.58334  0.41667  0.25000
E23   E   0.83333  0.41666  0.25000
E24   E   0.83333  0.41667  0.25000
E25   E   0.83333  0.91666  0.25000
E26   E   0.83333  0.91667  0.25000
E27   E   0.83334  0.91667  0.62500
E28   E   0.83334  0.91667  0.87500
E29   E   0.91666  0.08333  0.75000
E30   E   0.91666  0.83333  0.75000
E31   E   0.91667  0.08333  0.12500
E32   E   0.91667  0.08333  0.37500
E33   E   0.91667  0.08334  0.75000
E34   E   0.91667  0.83333  0.75000
E35   E   0.91667  0.83334  0.12500
E36   E   0.91667  0.83334  0.37500
loop_
