
#======================================================================
# CRYSTAL DATA
#----------------------------------------------------------------------
data_VESTA_phase_1

_chemical_name_common                  'sym_8_mc_9'
_cell_length_a                         20.000000
_cell_length_b                         20.000000
_cell_length_c                         20.000000
_cell_angle_alpha                      90.000000
_cell_angle_beta                       90.000000
_cell_angle_gamma                      90.000000
_cell_volume                           8000.000000
_space_group_name_H-M_alt              'P 1'
_space_group_IT_number                 1

loop_
_space_group_symop_operation_xyz
   'x, y, z'

loop_
   _atom_site_label
   _atom_site_occupancy
   _atom_site_fract_x
   _atom_site_fract_y
   _atom_site_fract_z
   _atom_site_adp_type
   _atom_site_U_iso_or_equiv
   _atom_site_type_symbol
   O1         1.0     0.089960    -0.130010    -0.118910    Uiso  ? O
   O2         1.0     0.171920    -0.058690    -0.052770    Uiso  ? O
   X3         1.0     0.154840    -0.104980    -0.103810    Uiso  ? C
   O4         1.0    -0.089970     0.118270    -0.130600    Uiso  ? O
   O5         1.0    -0.171920     0.053470    -0.058050    Uiso  ? O
   X6         1.0    -0.154850     0.094770    -0.113210    Uiso  ? C
   O7         1.0     0.089960     0.118270    -0.130600    Uiso  ? O
   O8         1.0     0.171920     0.053470    -0.058050    Uiso  ? O
   X9         1.0     0.154840     0.094770    -0.113210    Uiso  ? C
   O10        1.0    -0.089970    -0.130010    -0.118910    Uiso  ? O
   O11        1.0    -0.171920    -0.058690    -0.052770    Uiso  ? O
   X12        1.0    -0.154850    -0.104980    -0.103810    Uiso  ? C
   Zr13       1.0     0.000000    -0.087210    -0.079150    Uiso  ? Zr
   O14        1.0     0.000000    -0.085360    -0.184350    Uiso  ? O
   O15        1.0    -0.008630    -0.193300    -0.071880    Uiso  ? O
   Zr16       1.0     0.000000     0.079390    -0.086990    Uiso  ? Zr
   O17        1.0     0.009610     0.074150    -0.193130    Uiso  ? O
   O18        1.0    -0.011170     0.184880    -0.083320    Uiso  ? O
   O19        1.0     0.060760    -0.004550    -0.096680    Uiso  ? O
   O20        1.0    -0.060760    -0.004550    -0.096680    Uiso  ? O
   O21        1.0    -0.089970    -0.118270     0.130600    Uiso  ? O
   O22        1.0    -0.171920    -0.053470     0.058050    Uiso  ? O
   X23        1.0    -0.154850    -0.094770     0.113210    Uiso  ? C
   O24        1.0     0.089960     0.130010     0.118910    Uiso  ? O
   O25        1.0     0.171920     0.058690     0.052770    Uiso  ? O
   X26        1.0     0.154840     0.104980     0.103810    Uiso  ? C
   O27        1.0    -0.089970     0.130010     0.118910    Uiso  ? O
   O28        1.0    -0.171920     0.058690     0.052770    Uiso  ? O
   X29        1.0    -0.154850     0.104980     0.103810    Uiso  ? C
   O30        1.0     0.089960    -0.118270     0.130600    Uiso  ? O
   O31        1.0     0.171920    -0.053470     0.058050    Uiso  ? O
   X32        1.0     0.154840    -0.094770     0.113210    Uiso  ? C
   Zr33       1.0     0.000000    -0.079390     0.086990    Uiso  ? Zr
   O34        1.0     0.008890    -0.072740     0.193170    Uiso  ? O
   O35        1.0     0.002070    -0.185420     0.085390    Uiso  ? O
   Zr36       1.0     0.000000     0.087210     0.079150    Uiso  ? Zr
   O37        1.0    -0.002780     0.090730     0.185000    Uiso  ? O
   O38        1.0     0.003580     0.192770     0.065050    Uiso  ? O
   Zr39       1.0     0.099760     0.000000     0.000000    Uiso  ? Zr
   Zr40       1.0    -0.099770     0.000000     0.000000    Uiso  ? Zr
   O41        1.0    -0.060760     0.004550     0.096680    Uiso  ? O
   O42        1.0     0.060760     0.004550     0.096680    Uiso  ? O
   O43        1.0    -0.061290    -0.096910     0.004560    Uiso  ? O
   O44        1.0     0.061290     0.096910    -0.004560    Uiso  ? O
   O45        1.0     0.061290    -0.096910     0.004560    Uiso  ? O
   O46        1.0    -0.061290     0.096910    -0.004560    Uiso  ? O
   H47        1.0    -0.090070    -0.006760    -0.143740    Uiso  ? H
   H48        1.0     0.091650     0.143220    -0.006740    Uiso  ? H
   H49        1.0    -0.090070     0.006760     0.143740    Uiso  ? H
   H50        1.0     0.091650    -0.143220     0.006740    Uiso  ? H
   H51        1.0     0.032840     0.206120    -0.075850    Uiso  ? H
   H52        1.0    -0.037570     0.206940     0.041460    Uiso  ? H
   H53        1.0     0.031310     0.059190     0.202100    Uiso  ? H
   H54        1.0    -0.028030    -0.045620     0.211500    Uiso  ? H
   H55        1.0    -0.036610    -0.201570     0.059060    Uiso  ? H
   H56        1.0     0.028970    -0.211280    -0.045480    Uiso  ? H
   H57        1.0     0.037190    -0.056870    -0.200340    Uiso  ? H
   H58        1.0    -0.026710     0.046260    -0.211530    Uiso  ? H
   H59        1.0     0.000750    -0.118060     0.211660    Uiso  ? H
   H60        1.0    -0.001180    -0.211820    -0.117300    Uiso  ? H
   H61        1.0     0.000420     0.119420    -0.211260    Uiso  ? H
   H62        1.0    -0.000080     0.213610     0.109890    Uiso  ? H
