
#======================================================================
# CRYSTAL DATA
#----------------------------------------------------------------------
data_VESTA_phase_1

_chemical_name_common                  'sym_12_mc_11'
_cell_length_a                         20.000000
_cell_length_b                         20.000000
_cell_length_c                         20.000000
_cell_angle_alpha                      90.000000
_cell_angle_beta                       90.000000
_cell_angle_gamma                      90.000000
_cell_volume                           8000.000000
_space_group_name_H-M_alt              'P 1'
_space_group_IT_number                 1

loop_
_space_group_symop_operation_xyz
   'x, y, z'

loop_
   _atom_site_label
   _atom_site_occupancy
   _atom_site_fract_x
   _atom_site_fract_y
   _atom_site_fract_z
   _atom_site_adp_type
   _atom_site_U_iso_or_equiv
   _atom_site_type_symbol
   O1         O     -0.176470     0.000000    -0.098640    Uiso  ? O
   O2         O      0.176470     0.000000    -0.098640    Uiso  ? O
   O3         O      0.000000     0.098640    -0.176470    Uiso  ? O
   O4         O      0.000000    -0.098640    -0.176470    Uiso  ? O
   O5         O      0.000000    -0.176470    -0.098640    Uiso  ? O
   O6         O      0.000000     0.176470    -0.098640    Uiso  ? O
   O7         O      0.098640     0.000000    -0.176470    Uiso  ? O
   O8         O     -0.098640     0.000000    -0.176470    Uiso  ? O
   Zr9        Zr     0.000000     0.000000    -0.124100    Uiso  ? Zr
   O10        O      0.058060    -0.058060    -0.058060    Uiso  ? O
   O11        O     -0.058060     0.058060    -0.058060    Uiso  ? O
   X12        C     -0.158970     0.000000    -0.158970    Uiso  ? C
   X13        C      0.158970     0.000000    -0.158970    Uiso  ? C
   X14        C      0.000000     0.158970    -0.158970    Uiso  ? C
   X15        C      0.000000    -0.158970    -0.158970    Uiso  ? C
   H16        H      0.093150     0.093150    -0.093150    Uiso  ? H
   O17        O      0.058060     0.058060    -0.058060    Uiso  ? O
   H18        H     -0.093150    -0.093150    -0.093150    Uiso  ? H
   O19        O     -0.058060    -0.058060    -0.058060    Uiso  ? O
   O20        O      0.176470     0.000000     0.098640    Uiso  ? O
   O21        O     -0.176470     0.000000     0.098640    Uiso  ? O
   O22        O      0.098640     0.176470     0.000000    Uiso  ? O
   O23        O      0.098640    -0.176470     0.000000    Uiso  ? O
   O24        O     -0.098640    -0.176470     0.000000    Uiso  ? O
   O25        O     -0.098640     0.176470     0.000000    Uiso  ? O
   O26        O      0.000000     0.098640     0.176470    Uiso  ? O
   O27        O      0.000000    -0.098640     0.176470    Uiso  ? O
   O28        O      0.000000     0.176470     0.098640    Uiso  ? O
   O29        O      0.000000    -0.176470     0.098640    Uiso  ? O
   O30        O      0.176470     0.098640     0.000000    Uiso  ? O
   O31        O     -0.176470     0.098640     0.000000    Uiso  ? O
   O32        O     -0.176470    -0.098640     0.000000    Uiso  ? O
   O33        O      0.176470    -0.098640     0.000000    Uiso  ? O
   O34        O      0.098640     0.000000     0.176470    Uiso  ? O
   O35        O     -0.098640     0.000000     0.176470    Uiso  ? O
   Zr36       Zr     0.124100     0.000000     0.000000    Uiso  ? Zr
   Zr37       Zr    -0.124100     0.000000     0.000000    Uiso  ? Zr
   Zr38       Zr     0.000000     0.124100     0.000000    Uiso  ? Zr
   Zr39       Zr     0.000000    -0.124100     0.000000    Uiso  ? Zr
   Zr40       Zr     0.000000     0.000000     0.124100    Uiso  ? Zr
   O41        O     -0.058060    -0.058060     0.058060    Uiso  ? O
   O42        O      0.058060     0.058060     0.058060    Uiso  ? O
   X43        C      0.158970     0.000000     0.158970    Uiso  ? C
   X44        C     -0.158970     0.000000     0.158970    Uiso  ? C
   X45        C      0.158970     0.158970     0.000000    Uiso  ? C
   X46        C      0.158970    -0.158970     0.000000    Uiso  ? C
   X47        C     -0.158970    -0.158970     0.000000    Uiso  ? C
   X48        C     -0.158970     0.158970     0.000000    Uiso  ? C
   X49        C      0.000000     0.158970     0.158970    Uiso  ? C
   X50        C      0.000000    -0.158970     0.158970    Uiso  ? C
   H51        H     -0.093150     0.093150     0.093150    Uiso  ? H
   O52        O     -0.058060     0.058060     0.058060    Uiso  ? O
   H53        H      0.093150    -0.093150     0.093150    Uiso  ? H
   O54        O      0.058060    -0.058060     0.058060    Uiso  ? O
loop_
