data_diedge
_audit_creation_date              2024-11-14
_audit_creation_method            'MOFbuilder'
_symmetry_space_group_name_H-M    'P1'
_symmetry_Int_Tables_number       1
_symmetry_cell_setting            triclinic
loop_
_symmetry_equiv_pos_as_xyz
  x,y,z
_cell_length_a                    50
_cell_length_b                    50
_cell_length_c                    50
_cell_angle_alpha                 90
_cell_angle_beta                  90
_cell_angle_gamma                 90
loop_
_atom_site_label
_atom_site_type_symbol
_atom_site_fract_x
_atom_site_fract_y
_atom_site_fract_z
C1         C    0.9850000060    0.0009546791    0.0002558788   0.00000  Uiso   1.00       -0.000000
C2         C    0.9711020060    0.9768826791    0.0002558788   0.00000  Uiso   1.00       -0.000000
C3         C    0.9433060060    0.9768826791    0.0002558788   0.00000  Uiso   1.00       -0.000000
X4         C    0.9294060060    0.0009546791    0.0002558788   0.00000  Uiso   1.00       -0.000000
C5         C    0.9433060060    0.0250266791    0.0002558788   0.00000  Uiso   1.00       -0.000000
C6         C    0.9711020060    0.0250266791    0.0002558788   0.00000  Uiso   1.00       -0.000000
X7         C    0.0705940060    0.0009546791    0.0002558788   0.00000  Uiso   1.00       -0.000000
C8         C    0.0566940060    0.9801066791    0.9882198788   0.00000  Uiso   1.00       -0.000000
C9         C    0.0288980060    0.9801066791    0.9882198788   0.00000  Uiso   1.00       -0.000000
C10        C    0.0150000060    0.0009546791    0.0002558788   0.00000  Uiso   1.00       -0.000000
C11        C    0.0288980060    0.0218026791    0.0122918788   0.00000  Uiso   1.00       -0.000000
C12        C    0.0566940060    0.0218026791    0.0122918788   0.00000  Uiso   1.00       -0.000000
H13        H    0.9819220060    0.9581406791    0.0002558788   0.00000  Uiso   1.00       -0.000000
H14        H    0.9324840060    0.9581406791    0.0002558788   0.00000  Uiso   1.00       -0.000000
H15        H    0.9324840060    0.0437686791    0.0002558788   0.00000  Uiso   1.00       -0.000000
H16        H    0.9819220060    0.0437686791    0.0002558788   0.00000  Uiso   1.00       -0.000000
H17        H    0.0675160060    0.9638766791    0.9788478788   0.00000  Uiso   1.00       -0.000000
H18        H    0.0180780060    0.9638766791    0.9788478788   0.00000  Uiso   1.00       -0.000000
H19        H    0.0180780060    0.0380326791    0.0216638788   0.00000  Uiso   1.00       -0.000000
H20        H    0.0675160060    0.0380326791    0.0216638788   0.00000  Uiso   1.00       -0.000000
loop_
_geom_bond_atom_site_label_1
_geom_bond_atom_site_label_2
_geom_bond_distance
_geom_bond_site_symmetry_2
_ccdc_geom_bond_type
C1           C2 0.028       .   S
C1           C6 0.028       .   S
C1          C10 0.030       .   S
C2           C3 0.028       .   S
C2          H13 0.022       .   S
C3           X4 0.028       .   A
C3          H14 0.022       .   S
X4           C5 0.028       .   A
C5           C6 0.028       .   S
C5          H15 0.022       .   S
C6          H16 0.022       .   S
X7           C8 0.028       .   A
X7          C12 0.028       .   A
C8           C9 0.028       .   S
C8          H17 0.022       .   S
C9          C10 0.028       .   S
C9          H18 0.022       .   S
C10         C11 0.028       .   S
C11         C12 0.028       .   S
C11         H19 0.022       .   S
C12         H20 0.022       .   S
