data_triC
_audit_creation_date              2024-11-14
_audit_creation_method            'MOFbuilder'
_symmetry_space_group_name_H-M    'P1'
_symmetry_Int_Tables_number       1
_symmetry_cell_setting            triclinic
loop_
_symmetry_equiv_pos_as_xyz
  x,y,z
_cell_length_a                    10
_cell_length_b                    10
_cell_length_c                    10
_cell_angle_alpha                 90
_cell_angle_beta                  90
_cell_angle_gamma                 90
loop_
_atom_site_label
_atom_site_type_symbol
_atom_site_fract_x
_atom_site_fract_y
_atom_site_fract_z
C1         C    0.572000        0.849200        0.340600       0.00000  Uiso   1.00       -0.000000
X2         Fr  -0.529800        0.884500        0.411600       0.00000  Uiso   1.00       -0.000000
X3         Fr  -0.529800       -0.884500        0.269500       0.00000  Uiso   1.00       -0.000000
X4         Fr   0.662200        0.782300        0.340600       0.00000  Uiso   1.00       -0.000000
