# CIF file generated by openbabel 2.4.90, see http://openbabel.sf.net
data_I
_chemical_name_common ''
_cell_length_a 41.968
_cell_length_b 41.968
_cell_length_c 17.143
_cell_angle_alpha 90
_cell_angle_beta 90
_cell_angle_gamma 120
_space_group_name_H-M_alt 'P 1'
_space_group_name_Hall 'P 1'
loop_
    _symmetry_equiv_pos_as_xyz
    x,y,z
loop_
    _atom_site_label
    _atom_site_type_symbol
    _atom_site_fract_x
    _atom_site_fract_y
    _atom_site_fract_z
    _atom_site_occupancy
    N0      N    0.75059   0.50117   0.50000   1.000
    N1      N    0.49883   0.24941   0.50000   1.000
    N2      N    0.75059   0.24941   0.50000   1.000
    N3      N    0.24941   0.49883   0.50000   1.000
    N4      N    0.24941   0.75059   0.50000   1.000
    N5      N    0.50117   0.75059   0.50000   1.000
    Zr6     Zr   0.50000   0.00000   0.00000   1.000
    Zr7     Zr   0.00000   0.50000   0.00000   1.000
    Zr8     Zr   0.50000   0.50000   0.00000   1.000
    O9      O    0.07621   0.57785   0.85468   1.000
    O10     O    0.07621   0.57785   0.14532   1.000
    O11     O    0.07621   0.49836   0.85468   1.000
    O12     O    0.07621   0.49836   0.14532   1.000
    O13     O    0.92379   0.42215   0.85468   1.000
    O14     O    0.92379   0.42215   0.14532   1.000
    O15     O    0.92379   0.50164   0.14532   1.000
    O16     O    0.92379   0.50164   0.85468   1.000
    O17     O    0.42215   0.92379   0.85468   1.000
    O18     O    0.42215   0.92379   0.14532   1.000
    O19     O    0.42215   0.49836   0.85468   1.000
    O20     O    0.42215   0.49836   0.14532   1.000
    O21     O    0.50164   0.92379   0.14532   1.000
    O22     O    0.50164   0.92379   0.85468   1.000
    O23     O    0.49836   0.07621   0.85468   1.000
    O24     O    0.49836   0.07621   0.14532   1.000
    O25     O    0.57785   0.07621   0.14532   1.000
    O26     O    0.57785   0.07621   0.85468   1.000
    O27     O    0.50164   0.57785   0.14532   1.000
    O28     O    0.50164   0.57785   0.85468   1.000
    O29     O    0.49836   0.42215   0.14532   1.000
    O30     O    0.49836   0.42215   0.85468   1.000
    O31     O    0.57785   0.50164   0.14532   1.000
    O32     O    0.57785   0.50164   0.85468   1.000
loop_
    _geom_bond_atom_site_label_1
    _geom_bond_atom_site_label_2
    _geom_bond_distance
    _geom_bond_site_symmetry_2
    _ccdc_geom_bond_type
    Zr7    O9        4.08169  1_554   S
    N4     O9        9.46928      .   S
    Zr7    O10       4.08169      .   S
    N4     O10       9.46928      .   S
    Zr7    O11       4.08169  1_554   S
    N3     O11       9.46928      .   S
    Zr7    O12       4.08169      .   S
    N3     O12       9.46928      .   S
    Zr7    O13       4.08169  1_454   S
    N2     O13       9.46928      .   S
    Zr7    O14       4.08169  1_455   S
    N2     O14       9.46928      .   S
    Zr7    O15       4.08169  1_455   S
    N0     O15       9.46928      .   S
    Zr7    O16       4.08169  1_454   S
    N0     O16       9.46928      .   S
    N4     O17       9.46928      .   S
    Zr6    O17       4.08169  1_544   S
    N4     O18       9.46928      .   S
    Zr6    O18       4.08169  1_545   S
    N3     O19       9.46928      .   S
    Zr8    O19       4.08169  1_554   S
    N3     O20       9.46928      .   S
    Zr8    O20       4.08169      .   S
    Zr6    O21       4.08169  1_545   S
    N5     O21       9.46928      .   S
    Zr6    O22       4.08169  1_544   S
    N5     O22       9.46928      .   S
    Zr6    O23       4.08169  1_554   S
    N1     O23       9.46928      .   S
    Zr6    O24       4.08169      .   S
    N1     O24       9.46928      .   S
    Zr6    O25       4.08169      .   S
    N2     O25       9.46928      .   S
    Zr6    O26       4.08169  1_554   S
    N2     O26       9.46928      .   S
    Zr8    O27       4.08169      .   S
    N5     O27       9.46928      .   S
    Zr8    O28       4.08169  1_554   S
    N5     O28       9.46928      .   S
    Zr8    O29       4.08169      .   S
    N1     O29       9.46928      .   S
    Zr8    O30       4.08169  1_554   S
    N1     O30       9.46928      .   S
    Zr8    O31       4.08169      .   S
    N0     O31       9.46928      .   S
    Zr8    O32       4.08169  1_554   S
    N0     O32       9.46928      .   S
