data_acs-g_P6322  hall_number: 476, V_con: 3
_audit_creation_date              2025-03-06
_audit_creation_method            'MOFbuilder_1.0'
_symmetry_space_group_name_H-M    'P1'
_symmetry_Int_Tables_number       1
_symmetry_cell_setting            triclinic
loop_
_symmetry_equiv_pos_as_xyz
  x,y,z
_cell_length_a                    38.8048
_cell_length_b                    38.8048
_cell_length_c                    23.4605
_cell_angle_alpha                 90.0
_cell_angle_beta                  90.0
_cell_angle_gamma                 120.0
loop_
_atom_site_label
_atom_site_type_symbol
_atom_site_fract_x
_atom_site_fract_y
_atom_site_fract_z
V1    V   0.10787  0.44120  0.35321
V2    V   0.10787  0.66667  0.14679
V3    V   0.33333  0.44120  0.14679
V4    V   0.33333  0.89213  0.35321
V5    V   0.44120  0.10787  0.64679
V6    V   0.44120  0.33333  0.85321
V7    V   0.55880  0.66667  0.35321
V8    V   0.55880  0.89213  0.14679
V9    V   0.66667  0.10787  0.85321
V10   V   0.66667  0.55880  0.64679
V11   V   0.89213  0.33333  0.64679
V12   V   0.89213  0.55880  0.85321
E1    E   0.00000  0.38727  0.50000
E2    E   0.00000  0.61273  0.00000
E3    E   0.10786  0.55393  0.25000
E4    E   0.22060  0.44120  0.25000
E5    E   0.22060  0.77940  0.25000
E6    E   0.38727  0.00000  0.50000
E7    E   0.38727  0.38727  0.00000
E8    E   0.44120  0.22060  0.75000
E9    E   0.44607  0.55393  0.25000
E10   E   0.44607  0.89214  0.25000
E11   E   0.44607  0.55393  0.25000
E12   E   0.44607  0.89214  0.25000
E13   E   0.55393  0.10786  0.75000
E14   E   0.55393  0.44607  0.75000
E15   E   0.55393  0.44607  0.75000
E16   E   0.55880  0.77940  0.25000
E17   E   0.61273  0.00000  0.00000
E18   E   0.61273  0.61273  0.50000
E19   E   0.77940  0.22060  0.75000
E20   E   0.77940  0.55880  0.75000
E21   E   0.89214  0.44607  0.75000
E22   E   0.89214  0.44607  0.75000
loop_
