data_ana_Ia-3d  hall_number: 530, V_con: 4
_audit_creation_date              2025-03-06
_audit_creation_method            'MOFbuilder_1.0'
_symmetry_space_group_name_H-M    'P1'
_symmetry_Int_Tables_number       1
_symmetry_cell_setting            triclinic
loop_
_symmetry_equiv_pos_as_xyz
  x,y,z
_cell_length_a                    43.8178
_cell_length_b                    43.8178
_cell_length_c                    43.8178
_cell_angle_alpha                 90.0
_cell_angle_beta                  90.0
_cell_angle_gamma                 90.0
loop_
_atom_site_label
_atom_site_type_symbol
_atom_site_fract_x
_atom_site_fract_y
_atom_site_fract_z
V1    V   0.08333  0.12500  0.83333
V2    V   0.08333  0.37500  0.33333
V3    V   0.08333  0.62500  0.16667
V4    V   0.08333  0.87500  0.66667
V5    V   0.08333  0.12500  0.83333
V6    V   0.08333  0.37500  0.33333
V7    V   0.08333  0.62500  0.16667
V8    V   0.08333  0.87500  0.66667
V9    V   0.12500  0.16667  0.41667
V10   V   0.12500  0.16667  0.41667
V11   V   0.12500  0.33333  0.91667
V12   V   0.12500  0.66667  0.58333
V13   V   0.12500  0.83333  0.08333
V14   V   0.12500  0.83333  0.08333
V15   V   0.16667  0.08333  0.62500
V16   V   0.16667  0.41667  0.12500
V17   V   0.16667  0.58333  0.37500
V18   V   0.16667  0.91667  0.87500
V19   V   0.16667  0.08333  0.62500
V20   V   0.16667  0.41667  0.12500
V21   V   0.16667  0.58333  0.37500
V22   V   0.16667  0.91667  0.87500
V23   V   0.33333  0.08333  0.37500
V24   V   0.33333  0.08333  0.37500
V25   V   0.33333  0.41667  0.87500
V26   V   0.33333  0.58333  0.62500
V27   V   0.33333  0.91667  0.12500
V28   V   0.37500  0.16667  0.58333
V29   V   0.37500  0.16667  0.58333
V30   V   0.37500  0.33333  0.08333
V31   V   0.37500  0.33333  0.08333
V32   V   0.37500  0.66667  0.41667
V33   V   0.37500  0.83333  0.91667
V34   V   0.41667  0.12500  0.16667
V35   V   0.41667  0.12500  0.16667
V36   V   0.41667  0.37500  0.66667
V37   V   0.41667  0.62500  0.83333
V38   V   0.41667  0.87500  0.33333
V39   V   0.58333  0.12500  0.66667
V40   V   0.58333  0.37500  0.16667
V41   V   0.58333  0.37500  0.16667
V42   V   0.58333  0.62500  0.33333
V43   V   0.58333  0.87500  0.83333
V44   V   0.62500  0.16667  0.08333
V45   V   0.62500  0.16667  0.08333
V46   V   0.62500  0.33333  0.58333
V47   V   0.62500  0.66667  0.91667
V48   V   0.62500  0.83333  0.41667
V49   V   0.66667  0.08333  0.87500
V50   V   0.66667  0.08333  0.87500
V51   V   0.66667  0.41667  0.37500
V52   V   0.66667  0.58333  0.12500
V53   V   0.66667  0.91667  0.62500
V54   V   0.83333  0.08333  0.12500
V55   V   0.83333  0.08333  0.12500
V56   V   0.83333  0.41667  0.62500
V57   V   0.83333  0.58333  0.87500
V58   V   0.83333  0.91667  0.37500
V59   V   0.87500  0.16667  0.91667
V60   V   0.87500  0.16667  0.91667
V61   V   0.87500  0.33333  0.41667
V62   V   0.87500  0.66667  0.08333
V63   V   0.87500  0.66667  0.08333
V64   V   0.87500  0.83333  0.58333
V65   V   0.91667  0.12500  0.33333
V66   V   0.91667  0.37500  0.83333
V67   V   0.91667  0.62500  0.66667
V68   V   0.91667  0.87500  0.16667
V69   V   0.91667  0.87500  0.16667
E1    E   0.02084  0.14584  0.37500
E2    E   0.02084  0.35416  0.87500
E3    E   0.02084  0.64584  0.62500
E4    E   0.02084  0.85416  0.12500
E5    E   0.10416  0.22916  0.87500
E6    E   0.10416  0.27084  0.37500
E7    E   0.10416  0.72916  0.12500
E8    E   0.10416  0.77084  0.62500
E9    E   0.12500  0.02084  0.85416
E10   E   0.12500  0.10416  0.72916
E11   E   0.12500  0.39584  0.22916
E12   E   0.12500  0.47916  0.35416
E13   E   0.12500  0.52084  0.14584
E14   E   0.12500  0.60416  0.27084
E15   E   0.12500  0.89584  0.77084
E16   E   0.12500  0.97916  0.64584
E17   E   0.14584  0.12500  0.52084
E18   E   0.14584  0.37500  0.02084
E19   E   0.14584  0.62500  0.47916
E20   E   0.14584  0.87500  0.97916
E21   E   0.22916  0.12500  0.39584
E22   E   0.22916  0.37500  0.89584
E23   E   0.22916  0.62500  0.60416
E24   E   0.22916  0.87500  0.10416
E25   E   0.27084  0.12500  0.60416
E26   E   0.27084  0.37500  0.10416
E27   E   0.27084  0.62500  0.39584
E28   E   0.27084  0.87500  0.89584
E29   E   0.35416  0.12500  0.47916
E30   E   0.35416  0.37500  0.97916
E31   E   0.35416  0.62500  0.52084
E32   E   0.35416  0.87500  0.02084
E33   E   0.37500  0.02084  0.14584
E34   E   0.37500  0.10416  0.27084
E35   E   0.37500  0.39584  0.77084
E36   E   0.37500  0.47916  0.64584
E37   E   0.37500  0.52084  0.85416
E38   E   0.37500  0.60416  0.72916
E39   E   0.37500  0.89584  0.22916
E40   E   0.37500  0.97916  0.35416
E41   E   0.39584  0.22916  0.12500
E42   E   0.39584  0.27084  0.62500
E43   E   0.39584  0.72916  0.87500
E44   E   0.39584  0.77084  0.37500
E45   E   0.47916  0.14584  0.62500
E46   E   0.47916  0.35416  0.12500
E47   E   0.47916  0.64584  0.37500
E48   E   0.47916  0.85416  0.87500
E49   E   0.52084  0.14584  0.12500
E50   E   0.52084  0.35416  0.62500
E51   E   0.52084  0.64584  0.87500
E52   E   0.52084  0.85416  0.37500
E53   E   0.60416  0.22916  0.62500
E54   E   0.60416  0.27084  0.12500
E55   E   0.60416  0.72916  0.37500
E56   E   0.60416  0.77084  0.87500
E57   E   0.62500  0.02084  0.64584
E58   E   0.62500  0.10416  0.77084
E59   E   0.62500  0.39584  0.27084
E60   E   0.62500  0.47916  0.14584
E61   E   0.62500  0.52084  0.35416
E62   E   0.62500  0.60416  0.22916
E63   E   0.62500  0.89584  0.72916
E64   E   0.62500  0.97916  0.85416
E65   E   0.64584  0.12500  0.97916
E66   E   0.64584  0.37500  0.47916
E67   E   0.64584  0.62500  0.02084
E68   E   0.64584  0.87500  0.52084
E69   E   0.72916  0.12500  0.10416
E70   E   0.72916  0.37500  0.60416
E71   E   0.72916  0.62500  0.89584
E72   E   0.72916  0.87500  0.39584
E73   E   0.77084  0.12500  0.89584
E74   E   0.77084  0.37500  0.39584
E75   E   0.77084  0.62500  0.10416
E76   E   0.77084  0.87500  0.60416
E77   E   0.85416  0.12500  0.02084
E78   E   0.85416  0.37500  0.52084
E79   E   0.85416  0.62500  0.97916
E80   E   0.85416  0.87500  0.47916
E81   E   0.87500  0.02084  0.35416
E82   E   0.87500  0.10416  0.22916
E83   E   0.87500  0.39584  0.72916
E84   E   0.87500  0.47916  0.85416
E85   E   0.87500  0.52084  0.64584
E86   E   0.87500  0.60416  0.77084
E87   E   0.87500  0.89584  0.27084
E88   E   0.87500  0.97916  0.14584
E89   E   0.89584  0.22916  0.37500
E90   E   0.89584  0.27084  0.87500
E91   E   0.89584  0.72916  0.62500
E92   E   0.89584  0.77084  0.12500
E93   E   0.97916  0.14584  0.87500
E94   E   0.97916  0.35416  0.37500
E95   E   0.97916  0.64584  0.12500
E96   E   0.97916  0.85416  0.62500
loop_
