data_apd_Cmca  hall_number: 304, V_con: 4, EC_con: 4
_audit_creation_date              2025-03-06
_audit_creation_method            'MOFbuilder_1.0'
_symmetry_space_group_name_H-M    'P1'
_symmetry_Int_Tables_number       1
_symmetry_cell_setting            triclinic
loop_
_symmetry_equiv_pos_as_xyz
  x,y,z
_cell_length_a                    27.7985
_cell_length_b                    64.0959
_cell_length_c                    31.9279
_cell_angle_alpha                 90.0
_cell_angle_beta                  90.0
_cell_angle_gamma                 90.0
loop_
_atom_site_label
_atom_site_type_symbol
_atom_site_fract_x
_atom_site_fract_y
_atom_site_fract_z
V1    V   0.17987  0.05752  0.10579
V2    V   0.17987  0.44248  0.60579
V3    V   0.17987  0.55752  0.39421
V4    V   0.17987  0.94248  0.89421
V5    V   0.32013  0.05752  0.39421
V6    V   0.32013  0.44248  0.89421
V7    V   0.32013  0.55752  0.10579
V8    V   0.32013  0.94248  0.60579
V9    V   0.67987  0.05752  0.39421
V10   V   0.67987  0.44248  0.89421
V11   V   0.67987  0.55752  0.10579
V12   V   0.67987  0.94248  0.60579
V13   V   0.82013  0.05752  0.10579
V14   V   0.82013  0.44248  0.60579
V15   V   0.82013  0.55752  0.39421
V16   V   0.82013  0.94248  0.89421
EC1    EC   0.17986  0.20118  0.39421
EC2    EC   0.17986  0.29882  0.89421
EC3    EC   0.17986  0.70118  0.10579
EC4    EC   0.17986  0.79882  0.60579
EC5    EC   0.32014  0.20118  0.10579
EC6    EC   0.32014  0.29882  0.60579
EC7    EC   0.32014  0.70118  0.39421
EC8    EC   0.32014  0.79882  0.89421
EC9    EC   0.67986  0.20118  0.10579
EC10   EC   0.67986  0.29882  0.60579
EC11   EC   0.67986  0.70118  0.39421
EC12   EC   0.67986  0.79882  0.89421
EC13   EC   0.82014  0.20118  0.39421
EC14   EC   0.82014  0.29882  0.89421
EC15   EC   0.82014  0.70118  0.10579
EC16   EC   0.82014  0.79882  0.60579
E1    E   0.00000  0.05752  0.10579
E2    E   0.00000  0.20118  0.39421
E3    E   0.00000  0.29882  0.89421
E4    E   0.00000  0.44248  0.60579
E5    E   0.00000  0.55752  0.39421
E6    E   0.00000  0.70118  0.10579
E7    E   0.00000  0.79882  0.60579
E8    E   0.00000  0.94248  0.89421
E9    E   0.17987  0.00000  0.00000
E10   E   0.17987  0.50000  0.50000
E11   E   0.25000  0.05752  0.25000
E12   E   0.25000  0.12935  0.10579
E13   E   0.25000  0.12935  0.39421
E14   E   0.25000  0.20118  0.25000
E15   E   0.25000  0.25000  0.00000
E16   E   0.25000  0.25000  0.50000
E17   E   0.25000  0.29882  0.75000
E18   E   0.25000  0.37065  0.60579
E19   E   0.25000  0.37065  0.89421
E20   E   0.25000  0.44248  0.75000
E21   E   0.25000  0.55752  0.25000
E22   E   0.25000  0.62935  0.10579
E23   E   0.25000  0.62935  0.39421
E24   E   0.25000  0.70118  0.25000
E25   E   0.25000  0.75000  0.00000
E26   E   0.25000  0.75000  0.50000
E27   E   0.25000  0.79882  0.75000
E28   E   0.25000  0.87065  0.60579
E29   E   0.25000  0.87065  0.89421
E30   E   0.25000  0.94248  0.75000
E31   E   0.32013  0.00000  0.50000
E32   E   0.32013  0.50000  0.00000
E33   E   0.50000  0.05752  0.39421
E34   E   0.50000  0.20118  0.10579
E35   E   0.50000  0.29882  0.60579
E36   E   0.50000  0.44248  0.89421
E37   E   0.50000  0.55752  0.10579
E38   E   0.50000  0.70118  0.39421
E39   E   0.50000  0.79882  0.89421
E40   E   0.50000  0.94248  0.60579
E41   E   0.67987  0.00000  0.50000
E42   E   0.67987  0.50000  0.00000
E43   E   0.75000  0.05752  0.25000
E44   E   0.75000  0.12935  0.10579
E45   E   0.75000  0.12935  0.39421
E46   E   0.75000  0.20118  0.25000
E47   E   0.75000  0.25000  0.00000
E48   E   0.75000  0.25000  0.50000
E49   E   0.75000  0.29882  0.75000
E50   E   0.75000  0.37065  0.60579
E51   E   0.75000  0.37065  0.89421
E52   E   0.75000  0.44248  0.75000
E53   E   0.75000  0.55752  0.25000
E54   E   0.75000  0.62935  0.10579
E55   E   0.75000  0.62935  0.39421
E56   E   0.75000  0.70118  0.25000
E57   E   0.75000  0.75000  0.00000
E58   E   0.75000  0.75000  0.50000
E59   E   0.75000  0.79882  0.75000
E60   E   0.75000  0.87065  0.60579
E61   E   0.75000  0.87065  0.89421
E62   E   0.75000  0.94248  0.75000
E63   E   0.82013  0.00000  0.00000
E64   E   0.82013  0.50000  0.50000
loop_
