data_asf_I41/amd:2  hall_number: 427, V_con: 4, EC_con: 4
_audit_creation_date              2025-03-06
_audit_creation_method            'MOFbuilder_1.0'
_symmetry_space_group_name_H-M    'P1'
_symmetry_Int_Tables_number       1
_symmetry_cell_setting            triclinic
loop_
_symmetry_equiv_pos_as_xyz
  x,y,z
_cell_length_a                    46.188
_cell_length_b                    46.188
_cell_length_c                    32.6599
_cell_angle_alpha                 90.0
_cell_angle_beta                  90.0
_cell_angle_gamma                 90.0
loop_
_atom_site_label
_atom_site_type_symbol
_atom_site_fract_x
_atom_site_fract_y
_atom_site_fract_z
V1    V   0.00000  0.00000  0.50000
V2    V   0.00000  0.50000  0.50000
V3    V   0.25000  0.25000  0.25000
V4    V   0.25000  0.75000  0.75000
V5    V   0.50000  0.00000  0.00000
V6    V   0.50000  0.50000  0.00000
V7    V   0.75000  0.25000  0.25000
V8    V   0.75000  0.75000  0.75000
EC1    EC   0.18750  0.06250  0.37500
EC2    EC   0.18750  0.43750  0.37500
EC3    EC   0.18750  0.56250  0.62500
EC4    EC   0.18750  0.93750  0.62500
EC5    EC   0.31250  0.06250  0.12500
EC6    EC   0.31250  0.43750  0.12500
EC7    EC   0.31250  0.56250  0.87500
EC8    EC   0.31250  0.93750  0.87500
EC9    EC   0.68750  0.06250  0.12500
EC10   EC   0.68750  0.43750  0.12500
EC11   EC   0.68750  0.56250  0.87500
EC12   EC   0.68750  0.93750  0.87500
EC13   EC   0.81250  0.06250  0.37500
EC14   EC   0.81250  0.43750  0.37500
EC15   EC   0.81250  0.56250  0.62500
EC16   EC   0.81250  0.93750  0.62500
E1    E   0.09375  0.03125  0.43750
E2    E   0.09375  0.46875  0.43750
E3    E   0.09375  0.53125  0.56250
E4    E   0.09375  0.96875  0.56250
E5    E   0.18750  0.00000  0.50000
E6    E   0.18750  0.50000  0.50000
E7    E   0.21875  0.15625  0.31250
E8    E   0.21875  0.34375  0.31250
E9    E   0.21875  0.65625  0.68750
E10   E   0.21875  0.84375  0.68750
E11   E   0.25000  0.06250  0.25000
E12   E   0.25000  0.43750  0.25000
E13   E   0.25000  0.56250  0.75000
E14   E   0.25000  0.93750  0.75000
E15   E   0.28125  0.15625  0.18750
E16   E   0.28125  0.34375  0.18750
E17   E   0.28125  0.65625  0.81250
E18   E   0.28125  0.84375  0.81250
E19   E   0.31250  0.00000  0.00000
E20   E   0.31250  0.50000  0.00000
E21   E   0.40625  0.03125  0.06250
E22   E   0.40625  0.46875  0.06250
E23   E   0.40625  0.53125  0.93750
E24   E   0.40625  0.96875  0.93750
E25   E   0.59375  0.03125  0.06250
E26   E   0.59375  0.46875  0.06250
E27   E   0.59375  0.53125  0.93750
E28   E   0.59375  0.96875  0.93750
E29   E   0.68750  0.00000  0.00000
E30   E   0.68750  0.50000  0.00000
E31   E   0.71875  0.15625  0.18750
E32   E   0.71875  0.34375  0.18750
E33   E   0.71875  0.65625  0.81250
E34   E   0.71875  0.84375  0.81250
E35   E   0.75000  0.06250  0.25000
E36   E   0.75000  0.43750  0.25000
E37   E   0.75000  0.56250  0.75000
E38   E   0.75000  0.93750  0.75000
E39   E   0.78125  0.15625  0.31250
E40   E   0.78125  0.34375  0.31250
E41   E   0.78125  0.65625  0.68750
E42   E   0.78125  0.84375  0.68750
E43   E   0.81250  0.00000  0.50000
E44   E   0.81250  0.50000  0.50000
E45   E   0.90625  0.03125  0.43750
E46   E   0.90625  0.46875  0.43750
E47   E   0.90625  0.53125  0.56250
E48   E   0.90625  0.96875  0.56250
loop_
