data_ast_Fm-3m  hall_number: 523, V_con: 4, EC_con: 4
_audit_creation_date              2025-03-06
_audit_creation_method            'MOFbuilder_1.0'
_symmetry_space_group_name_H-M    'P1'
_symmetry_Int_Tables_number       1
_symmetry_cell_setting            triclinic
loop_
_symmetry_equiv_pos_as_xyz
  x,y,z
_cell_length_a                    43.0939
_cell_length_b                    43.0939
_cell_length_c                    43.0939
_cell_angle_alpha                 90.0
_cell_angle_beta                  90.0
_cell_angle_gamma                 90.0
loop_
_atom_site_label
_atom_site_type_symbol
_atom_site_fract_x
_atom_site_fract_y
_atom_site_fract_z
V1    V   0.11603  0.11603  0.38397
V2    V   0.11603  0.11603  0.61603
V3    V   0.11603  0.11603  0.38397
V4    V   0.11603  0.11603  0.61603
V5    V   0.11603  0.38397  0.11603
V6    V   0.11603  0.38397  0.88397
V7    V   0.11603  0.38397  0.11603
V8    V   0.11603  0.38397  0.88397
V9    V   0.11603  0.61603  0.11603
V10   V   0.11603  0.61603  0.88397
V11   V   0.11603  0.61603  0.11603
V12   V   0.11603  0.61603  0.88397
V13   V   0.11603  0.88397  0.38397
V14   V   0.11603  0.88397  0.61603
V15   V   0.11603  0.88397  0.38397
V16   V   0.11603  0.88397  0.61603
V17   V   0.11603  0.11603  0.38397
V18   V   0.11603  0.11603  0.61603
V19   V   0.11603  0.38397  0.11603
V20   V   0.11603  0.38397  0.88397
V21   V   0.11603  0.61603  0.11603
V22   V   0.11603  0.61603  0.88397
V23   V   0.11603  0.88397  0.38397
V24   V   0.11603  0.88397  0.61603
V25   V   0.38397  0.11603  0.11603
V26   V   0.38397  0.11603  0.88397
V27   V   0.38397  0.38397  0.38397
V28   V   0.38397  0.38397  0.61603
V29   V   0.38397  0.61603  0.38397
V30   V   0.38397  0.61603  0.61603
V31   V   0.38397  0.88397  0.11603
V32   V   0.38397  0.88397  0.88397
V33   V   0.38397  0.11603  0.11603
V34   V   0.38397  0.11603  0.88397
V35   V   0.38397  0.11603  0.11603
V36   V   0.38397  0.11603  0.88397
V37   V   0.38397  0.38397  0.38397
V38   V   0.38397  0.38397  0.61603
V39   V   0.38397  0.38397  0.38397
V40   V   0.38397  0.38397  0.61603
V41   V   0.38397  0.61603  0.38397
V42   V   0.38397  0.61603  0.61603
V43   V   0.38397  0.61603  0.38397
V44   V   0.38397  0.61603  0.61603
V45   V   0.38397  0.88397  0.11603
V46   V   0.38397  0.88397  0.88397
V47   V   0.38397  0.88397  0.11603
V48   V   0.38397  0.88397  0.88397
V49   V   0.61603  0.11603  0.11603
V50   V   0.61603  0.11603  0.88397
V51   V   0.61603  0.11603  0.11603
V52   V   0.61603  0.11603  0.88397
V53   V   0.61603  0.38397  0.38397
V54   V   0.61603  0.38397  0.61603
V55   V   0.61603  0.38397  0.38397
V56   V   0.61603  0.38397  0.61603
V57   V   0.61603  0.61603  0.38397
V58   V   0.61603  0.61603  0.61603
V59   V   0.61603  0.61603  0.38397
V60   V   0.61603  0.61603  0.61603
V61   V   0.61603  0.88397  0.11603
V62   V   0.61603  0.88397  0.88397
V63   V   0.61603  0.88397  0.11603
V64   V   0.61603  0.88397  0.88397
V65   V   0.61603  0.11603  0.11603
V66   V   0.61603  0.11603  0.88397
V67   V   0.61603  0.38397  0.38397
V68   V   0.61603  0.38397  0.61603
V69   V   0.61603  0.61603  0.38397
V70   V   0.61603  0.61603  0.61603
V71   V   0.61603  0.88397  0.11603
V72   V   0.61603  0.88397  0.88397
V73   V   0.88397  0.11603  0.38397
V74   V   0.88397  0.11603  0.61603
V75   V   0.88397  0.38397  0.11603
V76   V   0.88397  0.38397  0.88397
V77   V   0.88397  0.61603  0.11603
V78   V   0.88397  0.61603  0.88397
V79   V   0.88397  0.88397  0.38397
V80   V   0.88397  0.88397  0.61603
V81   V   0.88397  0.11603  0.38397
V82   V   0.88397  0.11603  0.61603
V83   V   0.88397  0.11603  0.38397
V84   V   0.88397  0.11603  0.61603
V85   V   0.88397  0.38397  0.11603
V86   V   0.88397  0.38397  0.88397
V87   V   0.88397  0.38397  0.11603
V88   V   0.88397  0.38397  0.88397
V89   V   0.88397  0.61603  0.11603
V90   V   0.88397  0.61603  0.88397
V91   V   0.88397  0.61603  0.11603
V92   V   0.88397  0.61603  0.88397
V93   V   0.88397  0.88397  0.38397
V94   V   0.88397  0.88397  0.61603
V95   V   0.88397  0.88397  0.38397
V96   V   0.88397  0.88397  0.61603
EC1    EC   0.25000  0.25000  0.25000
EC2    EC   0.25000  0.25000  0.75000
EC3    EC   0.25000  0.75000  0.25000
EC4    EC   0.25000  0.75000  0.75000
EC5    EC   0.75000  0.25000  0.25000
EC6    EC   0.75000  0.25000  0.75000
EC7    EC   0.75000  0.75000  0.25000
EC8    EC   0.75000  0.75000  0.75000
E1    E   0.00000  0.11603  0.38397
E2    E   0.00000  0.11603  0.61603
E3    E   0.00000  0.11603  0.38397
E4    E   0.00000  0.11603  0.61603
E5    E   0.00000  0.38397  0.11603
E6    E   0.00000  0.38397  0.88397
E7    E   0.00000  0.38397  0.11603
E8    E   0.00000  0.38397  0.88397
E9    E   0.00000  0.61603  0.11603
E10   E   0.00000  0.61603  0.88397
E11   E   0.00000  0.61603  0.11603
E12   E   0.00000  0.61603  0.88397
E13   E   0.00000  0.88397  0.38397
E14   E   0.00000  0.88397  0.61603
E15   E   0.00000  0.88397  0.38397
E16   E   0.00000  0.88397  0.61603
E17   E   0.11603  0.00000  0.38397
E18   E   0.11603  0.00000  0.61603
E19   E   0.11603  0.11603  0.50000
E20   E   0.11603  0.38397  0.00000
E21   E   0.11603  0.50000  0.11603
E22   E   0.11603  0.50000  0.88397
E23   E   0.11603  0.61603  0.00000
E24   E   0.11603  0.88397  0.50000
E25   E   0.11603  0.00000  0.38397
E26   E   0.11603  0.00000  0.61603
E27   E   0.11603  0.11603  0.50000
E28   E   0.11603  0.38397  0.00000
E29   E   0.11603  0.50000  0.11603
E30   E   0.11603  0.50000  0.88397
E31   E   0.11603  0.61603  0.00000
E32   E   0.11603  0.88397  0.50000
E33   E   0.18301  0.18301  0.31699
E34   E   0.18301  0.18301  0.68301
E35   E   0.18301  0.31699  0.18301
E36   E   0.18301  0.31699  0.81699
E37   E   0.18301  0.68301  0.18301
E38   E   0.18301  0.68301  0.81699
E39   E   0.18301  0.81699  0.31699
E40   E   0.18301  0.81699  0.68301
E41   E   0.31699  0.18301  0.18301
E42   E   0.31699  0.18301  0.81699
E43   E   0.31699  0.31699  0.31699
E44   E   0.31699  0.31699  0.68301
E45   E   0.31699  0.68301  0.31699
E46   E   0.31699  0.68301  0.68301
E47   E   0.31699  0.81699  0.18301
E48   E   0.31699  0.81699  0.81699
E49   E   0.38397  0.00000  0.11603
E50   E   0.38397  0.00000  0.88397
E51   E   0.38397  0.11603  0.00000
E52   E   0.38397  0.38397  0.50000
E53   E   0.38397  0.50000  0.38397
E54   E   0.38397  0.50000  0.61603
E55   E   0.38397  0.61603  0.50000
E56   E   0.38397  0.88397  0.00000
E57   E   0.38397  0.00000  0.11603
E58   E   0.38397  0.00000  0.88397
E59   E   0.38397  0.11603  0.00000
E60   E   0.38397  0.38397  0.50000
E61   E   0.38397  0.50000  0.38397
E62   E   0.38397  0.50000  0.61603
E63   E   0.38397  0.61603  0.50000
E64   E   0.38397  0.88397  0.00000
E65   E   0.50000  0.11603  0.11603
E66   E   0.50000  0.11603  0.88397
E67   E   0.50000  0.11603  0.11603
E68   E   0.50000  0.11603  0.88397
E69   E   0.50000  0.38397  0.38397
E70   E   0.50000  0.38397  0.61603
E71   E   0.50000  0.38397  0.38397
E72   E   0.50000  0.38397  0.61603
E73   E   0.50000  0.61603  0.38397
E74   E   0.50000  0.61603  0.61603
E75   E   0.50000  0.61603  0.38397
E76   E   0.50000  0.61603  0.61603
E77   E   0.50000  0.88397  0.11603
E78   E   0.50000  0.88397  0.88397
E79   E   0.50000  0.88397  0.11603
E80   E   0.50000  0.88397  0.88397
E81   E   0.61603  0.00000  0.11603
E82   E   0.61603  0.00000  0.88397
E83   E   0.61603  0.11603  0.00000
E84   E   0.61603  0.38397  0.50000
E85   E   0.61603  0.50000  0.38397
E86   E   0.61603  0.50000  0.61603
E87   E   0.61603  0.61603  0.50000
E88   E   0.61603  0.88397  0.00000
E89   E   0.61603  0.00000  0.11603
E90   E   0.61603  0.00000  0.88397
E91   E   0.61603  0.11603  0.00000
E92   E   0.61603  0.38397  0.50000
E93   E   0.61603  0.50000  0.38397
E94   E   0.61603  0.50000  0.61603
E95   E   0.61603  0.61603  0.50000
E96   E   0.61603  0.88397  0.00000
E97   E   0.68301  0.18301  0.18301
E98   E   0.68301  0.18301  0.81699
E99   E   0.68301  0.31699  0.31699
E100  E   0.68301  0.31699  0.68301
E101  E   0.68301  0.68301  0.31699
E102  E   0.68301  0.68301  0.68301
E103  E   0.68301  0.81699  0.18301
E104  E   0.68301  0.81699  0.81699
E105  E   0.81699  0.18301  0.31699
E106  E   0.81699  0.18301  0.68301
E107  E   0.81699  0.31699  0.18301
E108  E   0.81699  0.31699  0.81699
E109  E   0.81699  0.68301  0.18301
E110  E   0.81699  0.68301  0.81699
E111  E   0.81699  0.81699  0.31699
E112  E   0.81699  0.81699  0.68301
E113  E   0.88397  0.00000  0.38397
E114  E   0.88397  0.00000  0.61603
E115  E   0.88397  0.11603  0.50000
E116  E   0.88397  0.38397  0.00000
E117  E   0.88397  0.50000  0.11603
E118  E   0.88397  0.50000  0.88397
E119  E   0.88397  0.61603  0.00000
E120  E   0.88397  0.88397  0.50000
E121  E   0.88397  0.00000  0.38397
E122  E   0.88397  0.00000  0.61603
E123  E   0.88397  0.11603  0.50000
E124  E   0.88397  0.38397  0.00000
E125  E   0.88397  0.50000  0.11603
E126  E   0.88397  0.50000  0.88397
E127  E   0.88397  0.61603  0.00000
E128  E   0.88397  0.88397  0.50000
loop_
