data_bab_P-6m2  hall_number: 481, V_con: 4, EC_con: 4
_audit_creation_date              2025-03-06
_audit_creation_method            'MOFbuilder_1.0'
_symmetry_space_group_name_H-M    'P1'
_symmetry_Int_Tables_number       1
_symmetry_cell_setting            triclinic
loop_
_symmetry_equiv_pos_as_xyz
  x,y,z
_cell_length_a                    33.2294
_cell_length_b                    33.2294
_cell_length_c                    22.9091
_cell_angle_alpha                 90.0
_cell_angle_beta                  90.0
_cell_angle_gamma                 120.0
loop_
_atom_site_label
_atom_site_type_symbol
_atom_site_fract_x
_atom_site_fract_y
_atom_site_fract_z
V1    V   0.10031  0.20063  0.00000
V2    V   0.10031  0.89968  0.00000
V3    V   0.10032  0.20063  0.00000
V4    V   0.10032  0.89969  0.00000
V5    V   0.79937  0.89968  0.00000
V6    V   0.79937  0.89969  0.00000
EC1    EC   0.23302  0.46604  0.28175
EC2    EC   0.23302  0.46604  0.71825
EC3    EC   0.23302  0.76698  0.28175
EC4    EC   0.23302  0.76698  0.71825
EC5    EC   0.53396  0.76698  0.28175
EC6    EC   0.53396  0.76698  0.71825
E1    E   0.10031  0.05015  0.00000
E2    E   0.10031  0.05016  0.00000
E3    E   0.16666  0.33333  0.14087
E4    E   0.16666  0.33333  0.85913
E5    E   0.16666  0.83333  0.14087
E6    E   0.16666  0.83333  0.85913
E7    E   0.16667  0.33333  0.14087
E8    E   0.16667  0.33333  0.85913
E9    E   0.16667  0.83334  0.14087
E10   E   0.16667  0.83334  0.85913
E11   E   0.23302  0.46604  0.50000
E12   E   0.23302  0.61651  0.28175
E13   E   0.23302  0.61651  0.71825
E14   E   0.23302  0.76698  0.50000
E15   E   0.38349  0.61651  0.28175
E16   E   0.38349  0.61651  0.71825
E17   E   0.38349  0.76698  0.28175
E18   E   0.38349  0.76698  0.71825
E19   E   0.53396  0.76698  0.50000
E20   E   0.66667  0.83333  0.14087
E21   E   0.66667  0.83333  0.85913
E22   E   0.66667  0.83334  0.14087
E23   E   0.66667  0.83334  0.85913
E24   E   0.94984  0.05015  0.00000
E25   E   0.94984  0.89969  0.00000
E26   E   0.94985  0.05016  0.00000
E27   E   0.94985  0.89969  0.00000
loop_
