data_bak_Fm-3m  hall_number: 523, V_con: 4, EC_con: 4
_audit_creation_date              2025-03-06
_audit_creation_method            'MOFbuilder_1.0'
_symmetry_space_group_name_H-M    'P1'
_symmetry_Int_Tables_number       1
_symmetry_cell_setting            triclinic
loop_
_symmetry_equiv_pos_as_xyz
  x,y,z
_cell_length_a                    11.12093
_cell_length_b                    11.12093
_cell_length_c                    11.12093
_cell_angle_alpha                 90.0
_cell_angle_beta                  90.0
_cell_angle_gamma                 90.0
loop_
_atom_site_label
_atom_site_type_symbol
_atom_site_fract_x
_atom_site_fract_y
_atom_site_fract_z
V1    V   0.04496  0.21821  0.21821
V2    V   0.04496  0.21821  0.78179
V3    V   0.04496  0.28179  0.28179
V4    V   0.04496  0.28179  0.71821
V5    V   0.04496  0.71821  0.28179
V6    V   0.04496  0.71821  0.71821
V7    V   0.04496  0.78179  0.21821
V8    V   0.04496  0.78179  0.78179
V9    V   0.21821  0.04496  0.21821
V10   V   0.21821  0.04496  0.78179
V11   V   0.21821  0.21821  0.04496
V12   V   0.21821  0.21821  0.95504
V13   V   0.21821  0.28179  0.45504
V14   V   0.21821  0.28179  0.54496
V15   V   0.21821  0.45504  0.28179
V16   V   0.21821  0.45504  0.71821
V17   V   0.21821  0.54496  0.28179
V18   V   0.21821  0.54496  0.71821
V19   V   0.21821  0.71821  0.45504
V20   V   0.21821  0.71821  0.54496
V21   V   0.21821  0.78179  0.04496
V22   V   0.21821  0.78179  0.95504
V23   V   0.21821  0.95504  0.21821
V24   V   0.21821  0.95504  0.78179
V25   V   0.28179  0.04496  0.28179
V26   V   0.28179  0.04496  0.71821
V27   V   0.28179  0.21821  0.45504
V28   V   0.28179  0.21821  0.54496
V29   V   0.28179  0.28179  0.04496
V30   V   0.28179  0.28179  0.95504
V31   V   0.28179  0.45504  0.21821
V32   V   0.28179  0.45504  0.78179
V33   V   0.28179  0.54496  0.21821
V34   V   0.28179  0.54496  0.78179
V35   V   0.28179  0.71821  0.04496
V36   V   0.28179  0.71821  0.95504
V37   V   0.28179  0.78179  0.45504
V38   V   0.28179  0.78179  0.54496
V39   V   0.28179  0.95504  0.28179
V40   V   0.28179  0.95504  0.71821
V41   V   0.45504  0.21821  0.28179
V42   V   0.45504  0.21821  0.71821
V43   V   0.45504  0.28179  0.21821
V44   V   0.45504  0.28179  0.78179
V45   V   0.45504  0.71821  0.21821
V46   V   0.45504  0.71821  0.78179
V47   V   0.45504  0.78179  0.28179
V48   V   0.45504  0.78179  0.71821
V49   V   0.54496  0.21821  0.28179
V50   V   0.54496  0.21821  0.71821
V51   V   0.54496  0.28179  0.21821
V52   V   0.54496  0.28179  0.78179
V53   V   0.54496  0.71821  0.21821
V54   V   0.54496  0.71821  0.78179
V55   V   0.54496  0.78179  0.28179
V56   V   0.54496  0.78179  0.71821
V57   V   0.71821  0.04496  0.28179
V58   V   0.71821  0.04496  0.71821
V59   V   0.71821  0.21821  0.45504
V60   V   0.71821  0.21821  0.54496
V61   V   0.71821  0.28179  0.04496
V62   V   0.71821  0.28179  0.95504
V63   V   0.71821  0.45504  0.21821
V64   V   0.71821  0.45504  0.78179
V65   V   0.71821  0.54496  0.21821
V66   V   0.71821  0.54496  0.78179
V67   V   0.71821  0.71821  0.04496
V68   V   0.71821  0.71821  0.95504
V69   V   0.71821  0.78179  0.45504
V70   V   0.71821  0.78179  0.54496
V71   V   0.71821  0.95504  0.28179
V72   V   0.71821  0.95504  0.71821
V73   V   0.78179  0.04496  0.21821
V74   V   0.78179  0.04496  0.78179
V75   V   0.78179  0.21821  0.04496
V76   V   0.78179  0.21821  0.95504
V77   V   0.78179  0.28179  0.45504
V78   V   0.78179  0.28179  0.54496
V79   V   0.78179  0.45504  0.28179
V80   V   0.78179  0.45504  0.71821
V81   V   0.78179  0.54496  0.28179
V82   V   0.78179  0.54496  0.71821
V83   V   0.78179  0.71821  0.45504
V84   V   0.78179  0.71821  0.54496
V85   V   0.78179  0.78179  0.04496
V86   V   0.78179  0.78179  0.95504
V87   V   0.78179  0.95504  0.21821
V88   V   0.78179  0.95504  0.78179
V89   V   0.95504  0.21821  0.21821
V90   V   0.95504  0.21821  0.78179
V91   V   0.95504  0.28179  0.28179
V92   V   0.95504  0.28179  0.71821
V93   V   0.95504  0.71821  0.28179
V94   V   0.95504  0.71821  0.71821
V95   V   0.95504  0.78179  0.21821
V96   V   0.95504  0.78179  0.78179
EC1    EC   0.12283  0.18642  0.25000
EC2    EC   0.12283  0.18642  0.75000
EC3    EC   0.12283  0.25000  0.18642
EC4    EC   0.12283  0.25000  0.31358
EC5    EC   0.12283  0.25000  0.68642
EC6    EC   0.12283  0.25000  0.81358
EC7    EC   0.12283  0.31358  0.25000
EC8    EC   0.12283  0.31358  0.75000
EC9    EC   0.12283  0.68642  0.25000
EC10   EC   0.12283  0.68642  0.75000
EC11   EC   0.12283  0.75000  0.18642
EC12   EC   0.12283  0.75000  0.31358
EC13   EC   0.12283  0.75000  0.68642
EC14   EC   0.12283  0.75000  0.81358
EC15   EC   0.12283  0.81358  0.25000
EC16   EC   0.12283  0.81358  0.75000
EC17   EC   0.18642  0.12283  0.25000
EC18   EC   0.18642  0.12283  0.75000
EC19   EC   0.18642  0.25000  0.12283
EC20   EC   0.18642  0.25000  0.37717
EC21   EC   0.18642  0.25000  0.62283
EC22   EC   0.18642  0.25000  0.87717
EC23   EC   0.18642  0.37717  0.25000
EC24   EC   0.18642  0.37717  0.75000
EC25   EC   0.18642  0.62283  0.25000
EC26   EC   0.18642  0.62283  0.75000
EC27   EC   0.18642  0.75000  0.12283
EC28   EC   0.18642  0.75000  0.37717
EC29   EC   0.18642  0.75000  0.62283
EC30   EC   0.18642  0.75000  0.87717
EC31   EC   0.18642  0.87717  0.25000
EC32   EC   0.18642  0.87717  0.75000
EC33   EC   0.25000  0.12283  0.18642
EC34   EC   0.25000  0.12283  0.31358
EC35   EC   0.25000  0.12283  0.68642
EC36   EC   0.25000  0.12283  0.81358
EC37   EC   0.25000  0.18642  0.12283
EC38   EC   0.25000  0.18642  0.37717
EC39   EC   0.25000  0.18642  0.62283
EC40   EC   0.25000  0.18642  0.87717
EC41   EC   0.25000  0.31358  0.12283
EC42   EC   0.25000  0.31358  0.37717
EC43   EC   0.25000  0.31358  0.62283
EC44   EC   0.25000  0.31358  0.87717
EC45   EC   0.25000  0.37717  0.18642
EC46   EC   0.25000  0.37717  0.31358
EC47   EC   0.25000  0.37717  0.68642
EC48   EC   0.25000  0.37717  0.81358
EC49   EC   0.25000  0.62283  0.18642
EC50   EC   0.25000  0.62283  0.31358
EC51   EC   0.25000  0.62283  0.68642
EC52   EC   0.25000  0.62283  0.81358
EC53   EC   0.25000  0.68642  0.12283
EC54   EC   0.25000  0.68642  0.37717
EC55   EC   0.25000  0.68642  0.62283
EC56   EC   0.25000  0.68642  0.87717
EC57   EC   0.25000  0.81358  0.12283
EC58   EC   0.25000  0.81358  0.37717
EC59   EC   0.25000  0.81358  0.62283
EC60   EC   0.25000  0.81358  0.87717
EC61   EC   0.25000  0.87717  0.18642
EC62   EC   0.25000  0.87717  0.31358
EC63   EC   0.25000  0.87717  0.68642
EC64   EC   0.25000  0.87717  0.81358
EC65   EC   0.31358  0.12283  0.25000
EC66   EC   0.31358  0.12283  0.75000
EC67   EC   0.31358  0.25000  0.12283
EC68   EC   0.31358  0.25000  0.37717
EC69   EC   0.31358  0.25000  0.62283
EC70   EC   0.31358  0.25000  0.87717
EC71   EC   0.31358  0.37717  0.25000
EC72   EC   0.31358  0.37717  0.75000
EC73   EC   0.31358  0.62283  0.25000
EC74   EC   0.31358  0.62283  0.75000
EC75   EC   0.31358  0.75000  0.12283
EC76   EC   0.31358  0.75000  0.37717
EC77   EC   0.31358  0.75000  0.62283
EC78   EC   0.31358  0.75000  0.87717
EC79   EC   0.31358  0.87717  0.25000
EC80   EC   0.31358  0.87717  0.75000
EC81   EC   0.37717  0.18642  0.25000
EC82   EC   0.37717  0.18642  0.75000
EC83   EC   0.37717  0.25000  0.18642
EC84   EC   0.37717  0.25000  0.31358
EC85   EC   0.37717  0.25000  0.68642
EC86   EC   0.37717  0.25000  0.81358
EC87   EC   0.37717  0.31358  0.25000
EC88   EC   0.37717  0.31358  0.75000
EC89   EC   0.37717  0.68642  0.25000
EC90   EC   0.37717  0.68642  0.75000
EC91   EC   0.37717  0.75000  0.18642
EC92   EC   0.37717  0.75000  0.31358
EC93   EC   0.37717  0.75000  0.68642
EC94   EC   0.37717  0.75000  0.81358
EC95   EC   0.37717  0.81358  0.25000
EC96   EC   0.37717  0.81358  0.75000
EC97   EC   0.62283  0.18642  0.25000
EC98   EC   0.62283  0.18642  0.75000
EC99   EC   0.62283  0.25000  0.18642
EC100  EC   0.62283  0.25000  0.31358
EC101  EC   0.62283  0.25000  0.68642
EC102  EC   0.62283  0.25000  0.81358
EC103  EC   0.62283  0.31358  0.25000
EC104  EC   0.62283  0.31358  0.75000
EC105  EC   0.62283  0.68642  0.25000
EC106  EC   0.62283  0.68642  0.75000
EC107  EC   0.62283  0.75000  0.18642
EC108  EC   0.62283  0.75000  0.31358
EC109  EC   0.62283  0.75000  0.68642
EC110  EC   0.62283  0.75000  0.81358
EC111  EC   0.62283  0.81358  0.25000
EC112  EC   0.62283  0.81358  0.75000
EC113  EC   0.68642  0.12283  0.25000
EC114  EC   0.68642  0.12283  0.75000
EC115  EC   0.68642  0.25000  0.12283
EC116  EC   0.68642  0.25000  0.37717
EC117  EC   0.68642  0.25000  0.62283
EC118  EC   0.68642  0.25000  0.87717
EC119  EC   0.68642  0.37717  0.25000
EC120  EC   0.68642  0.37717  0.75000
EC121  EC   0.68642  0.62283  0.25000
EC122  EC   0.68642  0.62283  0.75000
EC123  EC   0.68642  0.75000  0.12283
EC124  EC   0.68642  0.75000  0.37717
EC125  EC   0.68642  0.75000  0.62283
EC126  EC   0.68642  0.75000  0.87717
EC127  EC   0.68642  0.87717  0.25000
EC128  EC   0.68642  0.87717  0.75000
EC129  EC   0.75000  0.12283  0.18642
EC130  EC   0.75000  0.12283  0.31358
EC131  EC   0.75000  0.12283  0.68642
EC132  EC   0.75000  0.12283  0.81358
EC133  EC   0.75000  0.18642  0.12283
EC134  EC   0.75000  0.18642  0.37717
EC135  EC   0.75000  0.18642  0.62283
EC136  EC   0.75000  0.18642  0.87717
EC137  EC   0.75000  0.31358  0.12283
EC138  EC   0.75000  0.31358  0.37717
EC139  EC   0.75000  0.31358  0.62283
EC140  EC   0.75000  0.31358  0.87717
EC141  EC   0.75000  0.37717  0.18642
EC142  EC   0.75000  0.37717  0.31358
EC143  EC   0.75000  0.37717  0.68642
EC144  EC   0.75000  0.37717  0.81358
EC145  EC   0.75000  0.62283  0.18642
EC146  EC   0.75000  0.62283  0.31358
EC147  EC   0.75000  0.62283  0.68642
EC148  EC   0.75000  0.62283  0.81358
EC149  EC   0.75000  0.68642  0.12283
EC150  EC   0.75000  0.68642  0.37717
EC151  EC   0.75000  0.68642  0.62283
EC152  EC   0.75000  0.68642  0.87717
EC153  EC   0.75000  0.81358  0.12283
EC154  EC   0.75000  0.81358  0.37717
EC155  EC   0.75000  0.81358  0.62283
EC156  EC   0.75000  0.81358  0.87717
EC157  EC   0.75000  0.87717  0.18642
EC158  EC   0.75000  0.87717  0.31358
EC159  EC   0.75000  0.87717  0.68642
EC160  EC   0.75000  0.87717  0.81358
EC161  EC   0.81358  0.12283  0.25000
EC162  EC   0.81358  0.12283  0.75000
EC163  EC   0.81358  0.25000  0.12283
EC164  EC   0.81358  0.25000  0.37717
EC165  EC   0.81358  0.25000  0.62283
EC166  EC   0.81358  0.25000  0.87717
EC167  EC   0.81358  0.37717  0.25000
EC168  EC   0.81358  0.37717  0.75000
EC169  EC   0.81358  0.62283  0.25000
EC170  EC   0.81358  0.62283  0.75000
EC171  EC   0.81358  0.75000  0.12283
EC172  EC   0.81358  0.75000  0.37717
EC173  EC   0.81358  0.75000  0.62283
EC174  EC   0.81358  0.75000  0.87717
EC175  EC   0.81358  0.87717  0.25000
EC176  EC   0.81358  0.87717  0.75000
EC177  EC   0.87717  0.18642  0.25000
EC178  EC   0.87717  0.18642  0.75000
EC179  EC   0.87717  0.25000  0.18642
EC180  EC   0.87717  0.25000  0.31358
EC181  EC   0.87717  0.25000  0.68642
EC182  EC   0.87717  0.25000  0.81358
EC183  EC   0.87717  0.31358  0.25000
EC184  EC   0.87717  0.31358  0.75000
EC185  EC   0.87717  0.68642  0.25000
EC186  EC   0.87717  0.68642  0.75000
EC187  EC   0.87717  0.75000  0.18642
EC188  EC   0.87717  0.75000  0.31358
EC189  EC   0.87717  0.75000  0.68642
EC190  EC   0.87717  0.75000  0.81358
EC191  EC   0.87717  0.81358  0.25000
EC192  EC   0.87717  0.81358  0.75000
E1    E   0.00000  0.21821  0.21821
E2    E   0.00000  0.21821  0.78179
E3    E   0.00000  0.28179  0.28179
E4    E   0.00000  0.28179  0.71821
E5    E   0.00000  0.71821  0.28179
E6    E   0.00000  0.71821  0.71821
E7    E   0.00000  0.78179  0.21821
E8    E   0.00000  0.78179  0.78179
E9    E   0.04496  0.25000  0.25000
E10   E   0.04496  0.25000  0.75000
E11   E   0.04496  0.75000  0.25000
E12   E   0.04496  0.75000  0.75000
E13   E   0.08390  0.20231  0.23410
E14   E   0.08390  0.20231  0.76590
E15   E   0.08390  0.23410  0.20231
E16   E   0.08390  0.23410  0.79769
E17   E   0.08390  0.26590  0.29769
E18   E   0.08390  0.26590  0.70231
E19   E   0.08390  0.29769  0.26590
E20   E   0.08390  0.29769  0.73410
E21   E   0.08390  0.70231  0.26590
E22   E   0.08390  0.70231  0.73410
E23   E   0.08390  0.73410  0.29769
E24   E   0.08390  0.73410  0.70231
E25   E   0.08390  0.76590  0.20231
E26   E   0.08390  0.76590  0.79769
E27   E   0.08390  0.79769  0.23410
E28   E   0.08390  0.79769  0.76590
E29   E   0.12283  0.21821  0.21821
E30   E   0.12283  0.21821  0.28179
E31   E   0.12283  0.21821  0.71821
E32   E   0.12283  0.21821  0.78179
E33   E   0.12283  0.21821  0.28179
E34   E   0.12283  0.21821  0.71821
E35   E   0.12283  0.28179  0.21821
E36   E   0.12283  0.28179  0.21821
E37   E   0.12283  0.28179  0.28179
E38   E   0.12283  0.28179  0.71821
E39   E   0.12283  0.28179  0.78179
E40   E   0.12283  0.71821  0.21821
E41   E   0.12283  0.71821  0.21821
E42   E   0.12283  0.71821  0.28179
E43   E   0.12283  0.71821  0.71821
E44   E   0.12283  0.71821  0.78179
E45   E   0.12283  0.78179  0.21821
E46   E   0.12283  0.78179  0.28179
E47   E   0.12283  0.78179  0.71821
E48   E   0.12283  0.78179  0.78179
E49   E   0.15462  0.15462  0.25000
E50   E   0.15462  0.15462  0.75000
E51   E   0.15462  0.25000  0.15462
E52   E   0.15462  0.25000  0.34538
E53   E   0.15462  0.25000  0.65462
E54   E   0.15462  0.25000  0.84538
E55   E   0.15462  0.34538  0.25000
E56   E   0.15462  0.34538  0.75000
E57   E   0.15462  0.65462  0.25000
E58   E   0.15462  0.65462  0.75000
E59   E   0.15462  0.75000  0.15462
E60   E   0.15462  0.75000  0.34538
E61   E   0.15462  0.75000  0.65462
E62   E   0.15462  0.75000  0.84538
E63   E   0.15462  0.84538  0.25000
E64   E   0.15462  0.84538  0.75000
E65   E   0.20231  0.08390  0.23410
E66   E   0.20231  0.08390  0.76590
E67   E   0.20231  0.23410  0.08390
E68   E   0.20231  0.23410  0.91610
E69   E   0.20231  0.26590  0.41610
E70   E   0.20231  0.26590  0.58390
E71   E   0.20231  0.41610  0.26590
E72   E   0.20231  0.41610  0.73410
E73   E   0.20231  0.58390  0.26590
E74   E   0.20231  0.58390  0.73410
E75   E   0.20231  0.73410  0.41610
E76   E   0.20231  0.73410  0.58390
E77   E   0.20231  0.76590  0.08390
E78   E   0.20231  0.76590  0.91610
E79   E   0.20231  0.91610  0.23410
E80   E   0.20231  0.91610  0.76590
E81   E   0.21821  0.00000  0.21821
E82   E   0.21821  0.00000  0.78179
E83   E   0.21821  0.12283  0.21821
E84   E   0.21821  0.12283  0.28179
E85   E   0.21821  0.12283  0.71821
E86   E   0.21821  0.12283  0.78179
E87   E   0.21821  0.21821  0.00000
E88   E   0.21821  0.21821  0.12283
E89   E   0.21821  0.21821  0.87717
E90   E   0.21821  0.21821  0.37717
E91   E   0.21821  0.21821  0.62283
E92   E   0.21821  0.28179  0.12283
E93   E   0.21821  0.28179  0.37717
E94   E   0.21821  0.28179  0.50000
E95   E   0.21821  0.28179  0.62283
E96   E   0.21821  0.28179  0.87717
E97   E   0.21821  0.37717  0.21821
E98   E   0.21821  0.37717  0.28179
E99   E   0.21821  0.37717  0.71821
E100  E   0.21821  0.37717  0.78179
E101  E   0.21821  0.50000  0.28179
E102  E   0.21821  0.50000  0.71821
E103  E   0.21821  0.62283  0.21821
E104  E   0.21821  0.62283  0.28179
E105  E   0.21821  0.62283  0.71821
E106  E   0.21821  0.62283  0.78179
E107  E   0.21821  0.71821  0.12283
E108  E   0.21821  0.71821  0.37717
E109  E   0.21821  0.71821  0.50000
E110  E   0.21821  0.71821  0.62283
E111  E   0.21821  0.71821  0.87717
E112  E   0.21821  0.78179  0.00000
E113  E   0.21821  0.78179  0.12283
E114  E   0.21821  0.78179  0.37717
E115  E   0.21821  0.78179  0.62283
E116  E   0.21821  0.78179  0.87717
E117  E   0.21821  0.87717  0.21821
E118  E   0.21821  0.87717  0.28179
E119  E   0.21821  0.87717  0.71821
E120  E   0.21821  0.87717  0.78179
E121  E   0.21821  0.12283  0.28179
E122  E   0.21821  0.12283  0.71821
E123  E   0.21821  0.21821  0.37717
E124  E   0.21821  0.21821  0.62283
E125  E   0.21821  0.28179  0.12283
E126  E   0.21821  0.28179  0.87717
E127  E   0.21821  0.37717  0.21821
E128  E   0.21821  0.37717  0.78179
E129  E   0.21821  0.62283  0.21821
E130  E   0.21821  0.62283  0.78179
E131  E   0.21821  0.71821  0.12283
E132  E   0.21821  0.71821  0.87717
E133  E   0.21821  0.78179  0.37717
E134  E   0.21821  0.78179  0.62283
E135  E   0.21821  0.87717  0.28179
E136  E   0.21821  0.87717  0.71821
E137  E   0.23410  0.08390  0.20231
E138  E   0.23410  0.08390  0.79769
E139  E   0.23410  0.20231  0.08390
E140  E   0.23410  0.20231  0.91610
E141  E   0.23410  0.29769  0.41610
E142  E   0.23410  0.29769  0.58390
E143  E   0.23410  0.41610  0.29769
E144  E   0.23410  0.41610  0.70231
E145  E   0.23410  0.58390  0.29769
E146  E   0.23410  0.58390  0.70231
E147  E   0.23410  0.70231  0.41610
E148  E   0.23410  0.70231  0.58390
E149  E   0.23410  0.79769  0.08390
E150  E   0.23410  0.79769  0.91610
E151  E   0.23410  0.91610  0.20231
E152  E   0.23410  0.91610  0.79769
E153  E   0.25000  0.04496  0.25000
E154  E   0.25000  0.04496  0.75000
E155  E   0.25000  0.15462  0.15462
E156  E   0.25000  0.15462  0.34538
E157  E   0.25000  0.15462  0.65462
E158  E   0.25000  0.15462  0.84538
E159  E   0.25000  0.25000  0.04496
E160  E   0.25000  0.25000  0.45504
E161  E   0.25000  0.25000  0.54496
E162  E   0.25000  0.25000  0.95504
E163  E   0.25000  0.34538  0.15462
E164  E   0.25000  0.34538  0.34538
E165  E   0.25000  0.34538  0.65462
E166  E   0.25000  0.34538  0.84538
E167  E   0.25000  0.45504  0.25000
E168  E   0.25000  0.45504  0.75000
E169  E   0.25000  0.54496  0.25000
E170  E   0.25000  0.54496  0.75000
E171  E   0.25000  0.65462  0.15462
E172  E   0.25000  0.65462  0.34538
E173  E   0.25000  0.65462  0.65462
E174  E   0.25000  0.65462  0.84538
E175  E   0.25000  0.75000  0.04496
E176  E   0.25000  0.75000  0.45504
E177  E   0.25000  0.75000  0.54496
E178  E   0.25000  0.75000  0.95504
E179  E   0.25000  0.84538  0.15462
E180  E   0.25000  0.84538  0.34538
E181  E   0.25000  0.84538  0.65462
E182  E   0.25000  0.84538  0.84538
E183  E   0.25000  0.95504  0.25000
E184  E   0.25000  0.95504  0.75000
E185  E   0.26590  0.08390  0.29769
E186  E   0.26590  0.08390  0.70231
E187  E   0.26590  0.20231  0.41610
E188  E   0.26590  0.20231  0.58390
E189  E   0.26590  0.29769  0.08390
E190  E   0.26590  0.29769  0.91610
E191  E   0.26590  0.41610  0.20231
E192  E   0.26590  0.41610  0.79769
E193  E   0.26590  0.58390  0.20231
E194  E   0.26590  0.58390  0.79769
E195  E   0.26590  0.70231  0.08390
E196  E   0.26590  0.70231  0.91610
E197  E   0.26590  0.79769  0.41610
E198  E   0.26590  0.79769  0.58390
E199  E   0.26590  0.91610  0.29769
E200  E   0.26590  0.91610  0.70231
E201  E   0.28179  0.00000  0.28179
E202  E   0.28179  0.00000  0.71821
E203  E   0.28179  0.12283  0.21821
E204  E   0.28179  0.12283  0.21821
E205  E   0.28179  0.12283  0.28179
E206  E   0.28179  0.12283  0.71821
E207  E   0.28179  0.12283  0.78179
E208  E   0.28179  0.21821  0.12283
E209  E   0.28179  0.21821  0.37717
E210  E   0.28179  0.21821  0.50000
E211  E   0.28179  0.21821  0.62283
E212  E   0.28179  0.21821  0.87717
E213  E   0.28179  0.21821  0.12283
E214  E   0.28179  0.21821  0.87717
E215  E   0.28179  0.28179  0.00000
E216  E   0.28179  0.28179  0.12283
E217  E   0.28179  0.28179  0.37717
E218  E   0.28179  0.28179  0.62283
E219  E   0.28179  0.28179  0.87717
E220  E   0.28179  0.37717  0.21821
E221  E   0.28179  0.37717  0.28179
E222  E   0.28179  0.37717  0.71821
E223  E   0.28179  0.37717  0.78179
E224  E   0.28179  0.50000  0.21821
E225  E   0.28179  0.50000  0.78179
E226  E   0.28179  0.62283  0.21821
E227  E   0.28179  0.62283  0.28179
E228  E   0.28179  0.62283  0.71821
E229  E   0.28179  0.62283  0.78179
E230  E   0.28179  0.71821  0.00000
E231  E   0.28179  0.71821  0.12283
E232  E   0.28179  0.71821  0.37717
E233  E   0.28179  0.71821  0.62283
E234  E   0.28179  0.71821  0.87717
E235  E   0.28179  0.78179  0.12283
E236  E   0.28179  0.78179  0.37717
E237  E   0.28179  0.78179  0.50000
E238  E   0.28179  0.78179  0.62283
E239  E   0.28179  0.78179  0.87717
E240  E   0.28179  0.87717  0.21821
E241  E   0.28179  0.87717  0.21821
E242  E   0.28179  0.87717  0.28179
E243  E   0.28179  0.87717  0.71821
E244  E   0.28179  0.87717  0.78179
E245  E   0.29769  0.08390  0.26590
E246  E   0.29769  0.08390  0.73410
E247  E   0.29769  0.23410  0.41610
E248  E   0.29769  0.23410  0.58390
E249  E   0.29769  0.26590  0.08390
E250  E   0.29769  0.26590  0.91610
E251  E   0.29769  0.41610  0.23410
E252  E   0.29769  0.41610  0.76590
E253  E   0.29769  0.58390  0.23410
E254  E   0.29769  0.58390  0.76590
E255  E   0.29769  0.73410  0.08390
E256  E   0.29769  0.73410  0.91610
E257  E   0.29769  0.76590  0.41610
E258  E   0.29769  0.76590  0.58390
E259  E   0.29769  0.91610  0.26590
E260  E   0.29769  0.91610  0.73410
E261  E   0.34538  0.15462  0.25000
E262  E   0.34538  0.15462  0.75000
E263  E   0.34538  0.25000  0.15462
E264  E   0.34538  0.25000  0.34538
E265  E   0.34538  0.25000  0.65462
E266  E   0.34538  0.25000  0.84538
E267  E   0.34538  0.34538  0.25000
E268  E   0.34538  0.34538  0.75000
E269  E   0.34538  0.65462  0.25000
E270  E   0.34538  0.65462  0.75000
E271  E   0.34538  0.75000  0.15462
E272  E   0.34538  0.75000  0.34538
E273  E   0.34538  0.75000  0.65462
E274  E   0.34538  0.75000  0.84538
E275  E   0.34538  0.84538  0.25000
E276  E   0.34538  0.84538  0.75000
E277  E   0.37717  0.21821  0.21821
E278  E   0.37717  0.21821  0.28179
E279  E   0.37717  0.21821  0.71821
E280  E   0.37717  0.21821  0.78179
E281  E   0.37717  0.21821  0.21821
E282  E   0.37717  0.21821  0.78179
E283  E   0.37717  0.28179  0.21821
E284  E   0.37717  0.28179  0.28179
E285  E   0.37717  0.28179  0.71821
E286  E   0.37717  0.28179  0.78179
E287  E   0.37717  0.71821  0.21821
E288  E   0.37717  0.71821  0.28179
E289  E   0.37717  0.71821  0.71821
E290  E   0.37717  0.71821  0.78179
E291  E   0.37717  0.78179  0.21821
E292  E   0.37717  0.78179  0.21821
E293  E   0.37717  0.78179  0.28179
E294  E   0.37717  0.78179  0.71821
E295  E   0.37717  0.78179  0.78179
E296  E   0.41610  0.20231  0.26590
E297  E   0.41610  0.20231  0.73410
E298  E   0.41610  0.23410  0.29769
E299  E   0.41610  0.23410  0.70231
E300  E   0.41610  0.26590  0.20231
E301  E   0.41610  0.26590  0.79769
E302  E   0.41610  0.29769  0.23410
E303  E   0.41610  0.29769  0.76590
E304  E   0.41610  0.70231  0.23410
E305  E   0.41610  0.70231  0.76590
E306  E   0.41610  0.73410  0.20231
E307  E   0.41610  0.73410  0.79769
E308  E   0.41610  0.76590  0.29769
E309  E   0.41610  0.76590  0.70231
E310  E   0.41610  0.79769  0.26590
E311  E   0.41610  0.79769  0.73410
E312  E   0.45504  0.25000  0.25000
E313  E   0.45504  0.25000  0.75000
E314  E   0.45504  0.75000  0.25000
E315  E   0.45504  0.75000  0.75000
E316  E   0.50000  0.21821  0.28179
E317  E   0.50000  0.21821  0.71821
E318  E   0.50000  0.28179  0.21821
E319  E   0.50000  0.28179  0.78179
E320  E   0.50000  0.71821  0.21821
E321  E   0.50000  0.71821  0.78179
E322  E   0.50000  0.78179  0.28179
E323  E   0.50000  0.78179  0.71821
E324  E   0.54496  0.25000  0.25000
E325  E   0.54496  0.25000  0.75000
E326  E   0.54496  0.75000  0.25000
E327  E   0.54496  0.75000  0.75000
E328  E   0.58390  0.20231  0.26590
E329  E   0.58390  0.20231  0.73410
E330  E   0.58390  0.23410  0.29769
E331  E   0.58390  0.23410  0.70231
E332  E   0.58390  0.26590  0.20231
E333  E   0.58390  0.26590  0.79769
E334  E   0.58390  0.29769  0.23410
E335  E   0.58390  0.29769  0.76590
E336  E   0.58390  0.70231  0.23410
E337  E   0.58390  0.70231  0.76590
E338  E   0.58390  0.73410  0.20231
E339  E   0.58390  0.73410  0.79769
E340  E   0.58390  0.76590  0.29769
E341  E   0.58390  0.76590  0.70231
E342  E   0.58390  0.79769  0.26590
E343  E   0.58390  0.79769  0.73410
E344  E   0.62283  0.21821  0.21821
E345  E   0.62283  0.21821  0.28179
E346  E   0.62283  0.21821  0.71821
E347  E   0.62283  0.21821  0.78179
E348  E   0.62283  0.21821  0.21821
E349  E   0.62283  0.21821  0.78179
E350  E   0.62283  0.28179  0.21821
E351  E   0.62283  0.28179  0.28179
E352  E   0.62283  0.28179  0.71821
E353  E   0.62283  0.28179  0.78179
E354  E   0.62283  0.71821  0.21821
E355  E   0.62283  0.71821  0.28179
E356  E   0.62283  0.71821  0.71821
E357  E   0.62283  0.71821  0.78179
E358  E   0.62283  0.78179  0.21821
E359  E   0.62283  0.78179  0.21821
E360  E   0.62283  0.78179  0.28179
E361  E   0.62283  0.78179  0.71821
E362  E   0.62283  0.78179  0.78179
E363  E   0.65462  0.15462  0.25000
E364  E   0.65462  0.15462  0.75000
E365  E   0.65462  0.25000  0.15462
E366  E   0.65462  0.25000  0.34538
E367  E   0.65462  0.25000  0.65462
E368  E   0.65462  0.25000  0.84538
E369  E   0.65462  0.34538  0.25000
E370  E   0.65462  0.34538  0.75000
E371  E   0.65462  0.65462  0.25000
E372  E   0.65462  0.65462  0.75000
E373  E   0.65462  0.75000  0.15462
E374  E   0.65462  0.75000  0.34538
E375  E   0.65462  0.75000  0.65462
E376  E   0.65462  0.75000  0.84538
E377  E   0.65462  0.84538  0.25000
E378  E   0.65462  0.84538  0.75000
E379  E   0.70231  0.08390  0.26590
E380  E   0.70231  0.08390  0.73410
E381  E   0.70231  0.23410  0.41610
E382  E   0.70231  0.23410  0.58390
E383  E   0.70231  0.26590  0.08390
E384  E   0.70231  0.26590  0.91610
E385  E   0.70231  0.41610  0.23410
E386  E   0.70231  0.41610  0.76590
E387  E   0.70231  0.58390  0.23410
E388  E   0.70231  0.58390  0.76590
E389  E   0.70231  0.73410  0.08390
E390  E   0.70231  0.73410  0.91610
E391  E   0.70231  0.76590  0.41610
E392  E   0.70231  0.76590  0.58390
E393  E   0.70231  0.91610  0.26590
E394  E   0.70231  0.91610  0.73410
E395  E   0.71821  0.00000  0.28179
E396  E   0.71821  0.00000  0.71821
E397  E   0.71821  0.12283  0.21821
E398  E   0.71821  0.12283  0.21821
E399  E   0.71821  0.12283  0.28179
E400  E   0.71821  0.12283  0.71821
E401  E   0.71821  0.12283  0.78179
E402  E   0.71821  0.21821  0.12283
E403  E   0.71821  0.21821  0.37717
E404  E   0.71821  0.21821  0.50000
E405  E   0.71821  0.21821  0.62283
E406  E   0.71821  0.21821  0.87717
E407  E   0.71821  0.21821  0.12283
E408  E   0.71821  0.21821  0.87717
E409  E   0.71821  0.28179  0.00000
E410  E   0.71821  0.28179  0.12283
E411  E   0.71821  0.28179  0.37717
E412  E   0.71821  0.28179  0.62283
E413  E   0.71821  0.28179  0.87717
E414  E   0.71821  0.37717  0.21821
E415  E   0.71821  0.37717  0.28179
E416  E   0.71821  0.37717  0.71821
E417  E   0.71821  0.37717  0.78179
E418  E   0.71821  0.50000  0.21821
E419  E   0.71821  0.50000  0.78179
E420  E   0.71821  0.62283  0.21821
E421  E   0.71821  0.62283  0.28179
E422  E   0.71821  0.62283  0.71821
E423  E   0.71821  0.62283  0.78179
E424  E   0.71821  0.71821  0.00000
E425  E   0.71821  0.71821  0.12283
E426  E   0.71821  0.71821  0.37717
E427  E   0.71821  0.71821  0.62283
E428  E   0.71821  0.71821  0.87717
E429  E   0.71821  0.78179  0.12283
E430  E   0.71821  0.78179  0.37717
E431  E   0.71821  0.78179  0.50000
E432  E   0.71821  0.78179  0.62283
E433  E   0.71821  0.78179  0.87717
E434  E   0.71821  0.87717  0.21821
E435  E   0.71821  0.87717  0.21821
E436  E   0.71821  0.87717  0.28179
E437  E   0.71821  0.87717  0.71821
E438  E   0.71821  0.87717  0.78179
E439  E   0.73410  0.08390  0.29769
E440  E   0.73410  0.08390  0.70231
E441  E   0.73410  0.20231  0.41610
E442  E   0.73410  0.20231  0.58390
E443  E   0.73410  0.29769  0.08390
E444  E   0.73410  0.29769  0.91610
E445  E   0.73410  0.41610  0.20231
E446  E   0.73410  0.41610  0.79769
E447  E   0.73410  0.58390  0.20231
E448  E   0.73410  0.58390  0.79769
E449  E   0.73410  0.70231  0.08390
E450  E   0.73410  0.70231  0.91610
E451  E   0.73410  0.79769  0.41610
E452  E   0.73410  0.79769  0.58390
E453  E   0.73410  0.91610  0.29769
E454  E   0.73410  0.91610  0.70231
E455  E   0.75000  0.04496  0.25000
E456  E   0.75000  0.04496  0.75000
E457  E   0.75000  0.15462  0.15462
E458  E   0.75000  0.15462  0.34538
E459  E   0.75000  0.15462  0.65462
E460  E   0.75000  0.15462  0.84538
E461  E   0.75000  0.25000  0.04496
E462  E   0.75000  0.25000  0.45504
E463  E   0.75000  0.25000  0.54496
E464  E   0.75000  0.25000  0.95504
E465  E   0.75000  0.34538  0.15462
E466  E   0.75000  0.34538  0.34538
E467  E   0.75000  0.34538  0.65462
E468  E   0.75000  0.34538  0.84538
E469  E   0.75000  0.45504  0.25000
E470  E   0.75000  0.45504  0.75000
E471  E   0.75000  0.54496  0.25000
E472  E   0.75000  0.54496  0.75000
E473  E   0.75000  0.65462  0.15462
E474  E   0.75000  0.65462  0.34538
E475  E   0.75000  0.65462  0.65462
E476  E   0.75000  0.65462  0.84538
E477  E   0.75000  0.75000  0.04496
E478  E   0.75000  0.75000  0.45504
E479  E   0.75000  0.75000  0.54496
E480  E   0.75000  0.75000  0.95504
E481  E   0.75000  0.84538  0.15462
E482  E   0.75000  0.84538  0.34538
E483  E   0.75000  0.84538  0.65462
E484  E   0.75000  0.84538  0.84538
E485  E   0.75000  0.95504  0.25000
E486  E   0.75000  0.95504  0.75000
E487  E   0.76590  0.08390  0.20231
E488  E   0.76590  0.08390  0.79769
E489  E   0.76590  0.20231  0.08390
E490  E   0.76590  0.20231  0.91610
E491  E   0.76590  0.29769  0.41610
E492  E   0.76590  0.29769  0.58390
E493  E   0.76590  0.41610  0.29769
E494  E   0.76590  0.41610  0.70231
E495  E   0.76590  0.58390  0.29769
E496  E   0.76590  0.58390  0.70231
E497  E   0.76590  0.70231  0.41610
E498  E   0.76590  0.70231  0.58390
E499  E   0.76590  0.79769  0.08390
E500  E   0.76590  0.79769  0.91610
E501  E   0.76590  0.91610  0.20231
E502  E   0.76590  0.91610  0.79769
E503  E   0.78179  0.00000  0.21821
E504  E   0.78179  0.00000  0.78179
E505  E   0.78179  0.12283  0.21821
E506  E   0.78179  0.12283  0.28179
E507  E   0.78179  0.12283  0.71821
E508  E   0.78179  0.12283  0.78179
E509  E   0.78179  0.21821  0.00000
E510  E   0.78179  0.21821  0.12283
E511  E   0.78179  0.21821  0.37717
E512  E   0.78179  0.21821  0.62283
E513  E   0.78179  0.21821  0.87717
E514  E   0.78179  0.21821  0.37717
E515  E   0.78179  0.21821  0.62283
E516  E   0.78179  0.28179  0.12283
E517  E   0.78179  0.28179  0.37717
E518  E   0.78179  0.28179  0.50000
E519  E   0.78179  0.28179  0.62283
E520  E   0.78179  0.28179  0.87717
E521  E   0.78179  0.37717  0.21821
E522  E   0.78179  0.37717  0.21821
E523  E   0.78179  0.37717  0.28179
E524  E   0.78179  0.37717  0.71821
E525  E   0.78179  0.37717  0.78179
E526  E   0.78179  0.50000  0.28179
E527  E   0.78179  0.50000  0.71821
E528  E   0.78179  0.62283  0.21821
E529  E   0.78179  0.62283  0.21821
E530  E   0.78179  0.62283  0.28179
E531  E   0.78179  0.62283  0.71821
E532  E   0.78179  0.62283  0.78179
E533  E   0.78179  0.71821  0.12283
E534  E   0.78179  0.71821  0.37717
E535  E   0.78179  0.71821  0.50000
E536  E   0.78179  0.71821  0.62283
E537  E   0.78179  0.71821  0.87717
E538  E   0.78179  0.78179  0.00000
E539  E   0.78179  0.78179  0.12283
E540  E   0.78179  0.78179  0.37717
E541  E   0.78179  0.78179  0.62283
E542  E   0.78179  0.78179  0.87717
E543  E   0.78179  0.87717  0.21821
E544  E   0.78179  0.87717  0.28179
E545  E   0.78179  0.87717  0.71821
E546  E   0.78179  0.87717  0.78179
E547  E   0.79769  0.08390  0.23410
E548  E   0.79769  0.08390  0.76590
E549  E   0.79769  0.23410  0.08390
E550  E   0.79769  0.23410  0.91610
E551  E   0.79769  0.26590  0.41610
E552  E   0.79769  0.26590  0.58390
E553  E   0.79769  0.41610  0.26590
E554  E   0.79769  0.41610  0.73410
E555  E   0.79769  0.58390  0.26590
E556  E   0.79769  0.58390  0.73410
E557  E   0.79769  0.73410  0.41610
E558  E   0.79769  0.73410  0.58390
E559  E   0.79769  0.76590  0.08390
E560  E   0.79769  0.76590  0.91610
E561  E   0.79769  0.91610  0.23410
E562  E   0.79769  0.91610  0.76590
E563  E   0.84538  0.15462  0.25000
E564  E   0.84538  0.15462  0.75000
E565  E   0.84538  0.25000  0.15462
E566  E   0.84538  0.25000  0.34538
E567  E   0.84538  0.25000  0.65462
E568  E   0.84538  0.25000  0.84538
E569  E   0.84538  0.34538  0.25000
E570  E   0.84538  0.34538  0.75000
E571  E   0.84538  0.65462  0.25000
E572  E   0.84538  0.65462  0.75000
E573  E   0.84538  0.75000  0.15462
E574  E   0.84538  0.75000  0.34538
E575  E   0.84538  0.75000  0.65462
E576  E   0.84538  0.75000  0.84538
E577  E   0.84538  0.84538  0.25000
E578  E   0.84538  0.84538  0.75000
E579  E   0.87717  0.21821  0.21821
E580  E   0.87717  0.21821  0.28179
E581  E   0.87717  0.21821  0.71821
E582  E   0.87717  0.21821  0.78179
E583  E   0.87717  0.21821  0.28179
E584  E   0.87717  0.21821  0.71821
E585  E   0.87717  0.28179  0.21821
E586  E   0.87717  0.28179  0.21821
E587  E   0.87717  0.28179  0.28179
E588  E   0.87717  0.28179  0.71821
E589  E   0.87717  0.28179  0.78179
E590  E   0.87717  0.71821  0.21821
E591  E   0.87717  0.71821  0.21821
E592  E   0.87717  0.71821  0.28179
E593  E   0.87717  0.71821  0.71821
E594  E   0.87717  0.71821  0.78179
E595  E   0.87717  0.78179  0.21821
E596  E   0.87717  0.78179  0.28179
E597  E   0.87717  0.78179  0.71821
E598  E   0.87717  0.78179  0.78179
E599  E   0.91610  0.20231  0.23410
E600  E   0.91610  0.20231  0.76590
E601  E   0.91610  0.23410  0.20231
E602  E   0.91610  0.23410  0.79769
E603  E   0.91610  0.26590  0.29769
E604  E   0.91610  0.26590  0.70231
E605  E   0.91610  0.29769  0.26590
E606  E   0.91610  0.29769  0.73410
E607  E   0.91610  0.70231  0.26590
E608  E   0.91610  0.70231  0.73410
E609  E   0.91610  0.73410  0.29769
E610  E   0.91610  0.73410  0.70231
E611  E   0.91610  0.76590  0.20231
E612  E   0.91610  0.76590  0.79769
E613  E   0.91610  0.79769  0.23410
E614  E   0.91610  0.79769  0.76590
E615  E   0.95504  0.25000  0.25000
E616  E   0.95504  0.25000  0.75000
E617  E   0.95504  0.75000  0.25000
E618  E   0.95504  0.75000  0.75000
loop_
