data_bam_P6/mmm  hall_number: 485, V_con: 4, EC_con: 4
_audit_creation_date              2025-03-06
_audit_creation_method            'MOFbuilder_1.0'
_symmetry_space_group_name_H-M    'P1'
_symmetry_Int_Tables_number       1
_symmetry_cell_setting            triclinic
loop_
_symmetry_equiv_pos_as_xyz
  x,y,z
_cell_length_a                    75.6677
_cell_length_b                    75.6677
_cell_length_c                    31.4955
_cell_angle_alpha                 90.0
_cell_angle_beta                  90.0
_cell_angle_gamma                 120.0
loop_
_atom_site_label
_atom_site_type_symbol
_atom_site_fract_x
_atom_site_fract_y
_atom_site_fract_z
V1    V   0.20118  0.53451  0.15875
V2    V   0.20118  0.53451  0.84125
V3    V   0.20118  0.66667  0.15875
V4    V   0.20118  0.66667  0.84125
V5    V   0.33333  0.53451  0.15875
V6    V   0.33333  0.53451  0.84125
V7    V   0.33333  0.79882  0.15875
V8    V   0.33333  0.79882  0.84125
V9    V   0.46549  0.66667  0.15875
V10   V   0.46549  0.66667  0.84125
V11   V   0.46549  0.79882  0.15875
V12   V   0.46549  0.79882  0.84125
V13   V   0.53451  0.20118  0.15875
V14   V   0.53451  0.20118  0.84125
V15   V   0.53451  0.33333  0.15875
V16   V   0.53451  0.33333  0.84125
V17   V   0.66667  0.20118  0.15875
V18   V   0.66667  0.20118  0.84125
V19   V   0.66667  0.46549  0.15875
V20   V   0.66667  0.46549  0.84125
V21   V   0.79882  0.33333  0.15875
V22   V   0.79882  0.33333  0.84125
V23   V   0.79882  0.46549  0.15875
V24   V   0.79882  0.46549  0.84125
EC1    EC   0.07630  0.47207  0.34125
EC2    EC   0.07630  0.47207  0.65875
EC3    EC   0.07630  0.60423  0.34125
EC4    EC   0.07630  0.60423  0.65875
EC5    EC   0.39577  0.47207  0.34125
EC6    EC   0.39577  0.47207  0.65875
EC7    EC   0.39577  0.92370  0.34125
EC8    EC   0.39577  0.92370  0.65875
EC9    EC   0.47207  0.07630  0.34125
EC10   EC   0.47207  0.07630  0.65875
EC11   EC   0.47207  0.39577  0.34125
EC12   EC   0.47207  0.39577  0.65875
EC13   EC   0.52793  0.60423  0.34125
EC14   EC   0.52793  0.60423  0.65875
EC15   EC   0.52793  0.92370  0.34125
EC16   EC   0.52793  0.92370  0.65875
EC17   EC   0.60423  0.07630  0.34125
EC18   EC   0.60423  0.07630  0.65875
EC19   EC   0.60423  0.52793  0.34125
EC20   EC   0.60423  0.52793  0.65875
EC21   EC   0.92370  0.39577  0.34125
EC22   EC   0.92370  0.39577  0.65875
EC23   EC   0.92370  0.52793  0.34125
EC24   EC   0.92370  0.52793  0.65875
E1    E   0.00000  0.43392  0.34125
E2    E   0.00000  0.43392  0.65875
E3    E   0.00000  0.56608  0.34125
E4    E   0.00000  0.56608  0.65875
E5    E   0.07630  0.47207  0.50000
E6    E   0.07630  0.53815  0.34125
E7    E   0.07630  0.53815  0.65875
E8    E   0.07630  0.60423  0.50000
E9    E   0.13874  0.50329  0.25000
E10   E   0.13874  0.50329  0.75000
E11   E   0.13874  0.63545  0.25000
E12   E   0.13874  0.63545  0.75000
E13   E   0.20118  0.53451  0.00000
E14   E   0.20118  0.60059  0.15875
E15   E   0.20118  0.60059  0.84125
E16   E   0.20118  0.60059  0.15875
E17   E   0.20118  0.60059  0.84125
E18   E   0.20118  0.66667  0.00000
E19   E   0.26725  0.53451  0.15875
E20   E   0.26725  0.53451  0.84125
E21   E   0.26725  0.73274  0.15875
E22   E   0.26725  0.73274  0.84125
E23   E   0.26726  0.53451  0.15875
E24   E   0.26726  0.53451  0.84125
E25   E   0.26726  0.73275  0.15875
E26   E   0.26726  0.73275  0.84125
E27   E   0.33333  0.53451  0.00000
E28   E   0.33333  0.79882  0.00000
E29   E   0.36455  0.50329  0.25000
E30   E   0.36455  0.50329  0.75000
E31   E   0.36455  0.86126  0.25000
E32   E   0.36455  0.86126  0.75000
E33   E   0.39577  0.47207  0.50000
E34   E   0.39577  0.92370  0.50000
E35   E   0.39941  0.60059  0.15875
E36   E   0.39941  0.60059  0.84125
E37   E   0.39941  0.79882  0.15875
E38   E   0.39941  0.79882  0.84125
E39   E   0.39941  0.60059  0.15875
E40   E   0.39941  0.60059  0.84125
E41   E   0.39941  0.79882  0.15875
E42   E   0.39941  0.79882  0.84125
E43   E   0.43392  0.00000  0.34125
E44   E   0.43392  0.00000  0.65875
E45   E   0.43392  0.43392  0.34125
E46   E   0.43392  0.43392  0.65875
E47   E   0.46185  0.53815  0.34125
E48   E   0.46185  0.53815  0.65875
E49   E   0.46185  0.92370  0.34125
E50   E   0.46185  0.92370  0.65875
E51   E   0.46549  0.66667  0.00000
E52   E   0.46549  0.73274  0.15875
E53   E   0.46549  0.73274  0.84125
E54   E   0.46549  0.73275  0.15875
E55   E   0.46549  0.73275  0.84125
E56   E   0.46549  0.79882  0.00000
E57   E   0.47207  0.07630  0.50000
E58   E   0.47207  0.39577  0.50000
E59   E   0.49671  0.63545  0.25000
E60   E   0.49671  0.63545  0.75000
E61   E   0.49671  0.86126  0.25000
E62   E   0.49671  0.86126  0.75000
E63   E   0.50329  0.13874  0.25000
E64   E   0.50329  0.13874  0.75000
E65   E   0.50329  0.36455  0.25000
E66   E   0.50329  0.36455  0.75000
E67   E   0.52793  0.60423  0.50000
E68   E   0.52793  0.92370  0.50000
E69   E   0.53451  0.20118  0.00000
E70   E   0.53451  0.26725  0.15875
E71   E   0.53451  0.26725  0.84125
E72   E   0.53451  0.26726  0.15875
E73   E   0.53451  0.26726  0.84125
E74   E   0.53451  0.33333  0.00000
E75   E   0.53815  0.07630  0.34125
E76   E   0.53815  0.07630  0.65875
E77   E   0.53815  0.46185  0.34125
E78   E   0.53815  0.46185  0.65875
E79   E   0.56608  0.00000  0.34125
E80   E   0.56608  0.00000  0.65875
E81   E   0.56608  0.56608  0.34125
E82   E   0.56608  0.56608  0.65875
E83   E   0.60059  0.20118  0.15875
E84   E   0.60059  0.20118  0.84125
E85   E   0.60059  0.39941  0.15875
E86   E   0.60059  0.39941  0.84125
E87   E   0.60059  0.20118  0.15875
E88   E   0.60059  0.20118  0.84125
E89   E   0.60059  0.39941  0.15875
E90   E   0.60059  0.39941  0.84125
E91   E   0.60423  0.07630  0.50000
E92   E   0.60423  0.52793  0.50000
E93   E   0.63545  0.13874  0.25000
E94   E   0.63545  0.13874  0.75000
E95   E   0.63545  0.49671  0.25000
E96   E   0.63545  0.49671  0.75000
E97   E   0.66667  0.20118  0.00000
E98   E   0.66667  0.46549  0.00000
E99   E   0.73274  0.26725  0.15875
E100  E   0.73274  0.26725  0.84125
E101  E   0.73274  0.46549  0.15875
E102  E   0.73274  0.46549  0.84125
E103  E   0.73275  0.26726  0.15875
E104  E   0.73275  0.26726  0.84125
E105  E   0.73275  0.46549  0.15875
E106  E   0.73275  0.46549  0.84125
E107  E   0.79882  0.33333  0.00000
E108  E   0.79882  0.39941  0.15875
E109  E   0.79882  0.39941  0.84125
E110  E   0.79882  0.39941  0.15875
E111  E   0.79882  0.39941  0.84125
E112  E   0.79882  0.46549  0.00000
E113  E   0.86126  0.36455  0.25000
E114  E   0.86126  0.36455  0.75000
E115  E   0.86126  0.49671  0.25000
E116  E   0.86126  0.49671  0.75000
E117  E   0.92370  0.39577  0.50000
E118  E   0.92370  0.46185  0.34125
E119  E   0.92370  0.46185  0.65875
E120  E   0.92370  0.52793  0.50000
loop_
