data_bau_Fd-3m:2  hall_number: 526, V_con: 4, EC_con: 4
_audit_creation_date              2025-03-06
_audit_creation_method            'MOFbuilder_1.0'
_symmetry_space_group_name_H-M    'P1'
_symmetry_Int_Tables_number       1
_symmetry_cell_setting            triclinic
loop_
_symmetry_equiv_pos_as_xyz
  x,y,z
_cell_length_a                    10.27563
_cell_length_b                    10.27563
_cell_length_c                    10.27563
_cell_angle_alpha                 90.0
_cell_angle_beta                  90.0
_cell_angle_gamma                 90.0
loop_
_atom_site_label
_atom_site_type_symbol
_atom_site_fract_x
_atom_site_fract_y
_atom_site_fract_z
V1    V   0.00000  0.06881  0.93119
V2    V   0.00000  0.06881  0.93119
V3    V   0.00000  0.18119  0.31881
V4    V   0.00000  0.18119  0.31881
V5    V   0.00000  0.31881  0.18119
V6    V   0.00000  0.31881  0.18119
V7    V   0.00000  0.43119  0.56881
V8    V   0.00000  0.43119  0.56881
V9    V   0.00000  0.56881  0.43119
V10   V   0.00000  0.56881  0.43119
V11   V   0.00000  0.68119  0.81881
V12   V   0.00000  0.81881  0.68119
V13   V   0.00000  0.93119  0.06881
V14   V   0.00000  0.93119  0.06881
V15   V   0.06881  0.00000  0.93119
V16   V   0.06881  0.25000  0.31881
V17   V   0.06881  0.31881  0.25000
V18   V   0.06881  0.43119  0.50000
V19   V   0.06881  0.50000  0.43119
V20   V   0.06881  0.75000  0.81881
V21   V   0.06881  0.81881  0.75000
V22   V   0.06881  0.93119  0.00000
V23   V   0.06881  0.00000  0.93119
V24   V   0.06881  0.25000  0.31881
V25   V   0.06881  0.31881  0.25000
V26   V   0.06881  0.43119  0.50000
V27   V   0.06881  0.50000  0.43119
V28   V   0.06881  0.75000  0.81881
V29   V   0.06881  0.81881  0.75000
V30   V   0.06881  0.93119  0.00000
V31   V   0.18119  0.00000  0.31881
V32   V   0.18119  0.25000  0.93119
V33   V   0.18119  0.31881  0.00000
V34   V   0.18119  0.43119  0.75000
V35   V   0.18119  0.50000  0.81881
V36   V   0.18119  0.75000  0.43119
V37   V   0.18119  0.81881  0.50000
V38   V   0.18119  0.93119  0.25000
V39   V   0.18119  0.00000  0.31881
V40   V   0.18119  0.25000  0.93119
V41   V   0.18119  0.31881  0.00000
V42   V   0.18119  0.43119  0.75000
V43   V   0.18119  0.50000  0.81881
V44   V   0.18119  0.75000  0.43119
V45   V   0.18119  0.81881  0.50000
V46   V   0.18119  0.93119  0.25000
V47   V   0.25000  0.06881  0.31881
V48   V   0.25000  0.06881  0.31881
V49   V   0.25000  0.18119  0.93119
V50   V   0.25000  0.18119  0.93119
V51   V   0.25000  0.31881  0.06881
V52   V   0.25000  0.31881  0.06881
V53   V   0.25000  0.43119  0.68119
V54   V   0.25000  0.43119  0.68119
V55   V   0.25000  0.56881  0.81881
V56   V   0.25000  0.68119  0.43119
V57   V   0.25000  0.68119  0.43119
V58   V   0.25000  0.81881  0.56881
V59   V   0.25000  0.93119  0.18119
V60   V   0.25000  0.93119  0.18119
V61   V   0.31881  0.00000  0.18119
V62   V   0.31881  0.06881  0.25000
V63   V   0.31881  0.18119  0.00000
V64   V   0.31881  0.25000  0.06881
V65   V   0.31881  0.50000  0.68119
V66   V   0.31881  0.56881  0.75000
V67   V   0.31881  0.68119  0.50000
V68   V   0.31881  0.75000  0.56881
V69   V   0.31881  0.00000  0.18119
V70   V   0.31881  0.06881  0.25000
V71   V   0.31881  0.18119  0.00000
V72   V   0.31881  0.25000  0.06881
V73   V   0.31881  0.50000  0.68119
V74   V   0.31881  0.56881  0.75000
V75   V   0.31881  0.68119  0.50000
V76   V   0.31881  0.75000  0.56881
V77   V   0.43119  0.00000  0.56881
V78   V   0.43119  0.06881  0.50000
V79   V   0.43119  0.18119  0.75000
V80   V   0.43119  0.25000  0.68119
V81   V   0.43119  0.50000  0.06881
V82   V   0.43119  0.56881  0.00000
V83   V   0.43119  0.68119  0.25000
V84   V   0.43119  0.75000  0.18119
V85   V   0.43119  0.00000  0.56881
V86   V   0.43119  0.06881  0.50000
V87   V   0.43119  0.18119  0.75000
V88   V   0.43119  0.25000  0.68119
V89   V   0.43119  0.50000  0.06881
V90   V   0.43119  0.56881  0.00000
V91   V   0.43119  0.68119  0.25000
V92   V   0.43119  0.75000  0.18119
V93   V   0.50000  0.06881  0.43119
V94   V   0.50000  0.06881  0.43119
V95   V   0.50000  0.18119  0.81881
V96   V   0.50000  0.18119  0.81881
V97   V   0.50000  0.31881  0.68119
V98   V   0.50000  0.31881  0.68119
V99   V   0.50000  0.43119  0.06881
V100  V   0.50000  0.43119  0.06881
V101  V   0.50000  0.56881  0.93119
V102  V   0.50000  0.68119  0.31881
V103  V   0.50000  0.68119  0.31881
V104  V   0.50000  0.81881  0.18119
V105  V   0.50000  0.81881  0.18119
V106  V   0.50000  0.93119  0.56881
V107  V   0.56881  0.00000  0.43119
V108  V   0.56881  0.00000  0.43119
V109  V   0.56881  0.25000  0.81881
V110  V   0.56881  0.31881  0.75000
V111  V   0.56881  0.31881  0.75000
V112  V   0.56881  0.43119  0.00000
V113  V   0.56881  0.43119  0.00000
V114  V   0.56881  0.50000  0.93119
V115  V   0.56881  0.75000  0.31881
V116  V   0.56881  0.75000  0.31881
V117  V   0.56881  0.81881  0.25000
V118  V   0.56881  0.93119  0.50000
V119  V   0.68119  0.00000  0.81881
V120  V   0.68119  0.25000  0.43119
V121  V   0.68119  0.25000  0.43119
V122  V   0.68119  0.31881  0.50000
V123  V   0.68119  0.31881  0.50000
V124  V   0.68119  0.43119  0.25000
V125  V   0.68119  0.43119  0.25000
V126  V   0.68119  0.50000  0.31881
V127  V   0.68119  0.50000  0.31881
V128  V   0.68119  0.75000  0.93119
V129  V   0.68119  0.81881  0.00000
V130  V   0.68119  0.93119  0.75000
V131  V   0.75000  0.06881  0.81881
V132  V   0.75000  0.06881  0.81881
V133  V   0.75000  0.18119  0.43119
V134  V   0.75000  0.18119  0.43119
V135  V   0.75000  0.31881  0.56881
V136  V   0.75000  0.31881  0.56881
V137  V   0.75000  0.43119  0.18119
V138  V   0.75000  0.43119  0.18119
V139  V   0.75000  0.56881  0.31881
V140  V   0.75000  0.56881  0.31881
V141  V   0.75000  0.68119  0.93119
V142  V   0.75000  0.81881  0.06881
V143  V   0.75000  0.81881  0.06881
V144  V   0.75000  0.93119  0.68119
V145  V   0.81881  0.00000  0.68119
V146  V   0.81881  0.06881  0.75000
V147  V   0.81881  0.06881  0.75000
V148  V   0.81881  0.18119  0.50000
V149  V   0.81881  0.18119  0.50000
V150  V   0.81881  0.25000  0.56881
V151  V   0.81881  0.50000  0.18119
V152  V   0.81881  0.50000  0.18119
V153  V   0.81881  0.56881  0.25000
V154  V   0.81881  0.68119  0.00000
V155  V   0.81881  0.75000  0.06881
V156  V   0.81881  0.75000  0.06881
V157  V   0.93119  0.00000  0.06881
V158  V   0.93119  0.00000  0.06881
V159  V   0.93119  0.06881  0.00000
V160  V   0.93119  0.06881  0.00000
V161  V   0.93119  0.18119  0.25000
V162  V   0.93119  0.18119  0.25000
V163  V   0.93119  0.25000  0.18119
V164  V   0.93119  0.25000  0.18119
V165  V   0.93119  0.50000  0.56881
V166  V   0.93119  0.56881  0.50000
V167  V   0.93119  0.68119  0.75000
V168  V   0.93119  0.75000  0.68119
EC1    EC   0.01263  0.30619  0.37500
EC2    EC   0.01263  0.37500  0.30619
EC3    EC   0.01263  0.37500  0.44381
EC4    EC   0.01263  0.44381  0.37500
EC5    EC   0.01263  0.80619  0.87500
EC6    EC   0.01263  0.87500  0.80619
EC7    EC   0.01263  0.87500  0.94381
EC8    EC   0.01263  0.94381  0.87500
EC9    EC   0.05619  0.12500  0.26263
EC10   EC   0.05619  0.12500  0.98737
EC11   EC   0.05619  0.26263  0.12500
EC12   EC   0.05619  0.48737  0.62500
EC13   EC   0.05619  0.62500  0.48737
EC14   EC   0.05619  0.62500  0.76263
EC15   EC   0.05619  0.76263  0.62500
EC16   EC   0.05619  0.98737  0.12500
EC17   EC   0.12500  0.05619  0.26263
EC18   EC   0.12500  0.05619  0.98737
EC19   EC   0.12500  0.19381  0.26263
EC20   EC   0.12500  0.19381  0.98737
EC21   EC   0.12500  0.26263  0.05619
EC22   EC   0.12500  0.26263  0.19381
EC23   EC   0.12500  0.48737  0.55619
EC24   EC   0.12500  0.48737  0.69381
EC25   EC   0.12500  0.55619  0.48737
EC26   EC   0.12500  0.55619  0.76263
EC27   EC   0.12500  0.69381  0.48737
EC28   EC   0.12500  0.69381  0.76263
EC29   EC   0.12500  0.76263  0.55619
EC30   EC   0.12500  0.76263  0.69381
EC31   EC   0.12500  0.98737  0.05619
EC32   EC   0.12500  0.98737  0.19381
EC33   EC   0.19381  0.12500  0.26263
EC34   EC   0.19381  0.12500  0.98737
EC35   EC   0.19381  0.26263  0.12500
EC36   EC   0.19381  0.48737  0.62500
EC37   EC   0.19381  0.62500  0.48737
EC38   EC   0.19381  0.62500  0.76263
EC39   EC   0.19381  0.76263  0.62500
EC40   EC   0.19381  0.98737  0.12500
EC41   EC   0.23737  0.30619  0.87500
EC42   EC   0.23737  0.37500  0.80619
EC43   EC   0.23737  0.37500  0.94381
EC44   EC   0.23737  0.44381  0.87500
EC45   EC   0.23737  0.80619  0.37500
EC46   EC   0.23737  0.87500  0.30619
EC47   EC   0.23737  0.87500  0.44381
EC48   EC   0.23737  0.94381  0.37500
EC49   EC   0.26263  0.05619  0.12500
EC50   EC   0.26263  0.12500  0.05619
EC51   EC   0.26263  0.12500  0.19381
EC52   EC   0.26263  0.19381  0.12500
EC53   EC   0.26263  0.55619  0.62500
EC54   EC   0.26263  0.62500  0.55619
EC55   EC   0.26263  0.62500  0.69381
EC56   EC   0.26263  0.69381  0.62500
EC57   EC   0.30619  0.01263  0.37500
EC58   EC   0.30619  0.23737  0.87500
EC59   EC   0.30619  0.37500  0.01263
EC60   EC   0.30619  0.37500  0.73737
EC61   EC   0.30619  0.51263  0.87500
EC62   EC   0.30619  0.73737  0.37500
EC63   EC   0.30619  0.87500  0.23737
EC64   EC   0.30619  0.87500  0.51263
EC65   EC   0.37500  0.01263  0.30619
EC66   EC   0.37500  0.01263  0.44381
EC67   EC   0.37500  0.23737  0.80619
EC68   EC   0.37500  0.23737  0.94381
EC69   EC   0.37500  0.30619  0.01263
EC70   EC   0.37500  0.30619  0.73737
EC71   EC   0.37500  0.44381  0.01263
EC72   EC   0.37500  0.44381  0.73737
EC73   EC   0.37500  0.51263  0.80619
EC74   EC   0.37500  0.51263  0.94381
EC75   EC   0.37500  0.73737  0.30619
EC76   EC   0.37500  0.73737  0.44381
EC77   EC   0.37500  0.80619  0.23737
EC78   EC   0.37500  0.80619  0.51263
EC79   EC   0.37500  0.94381  0.23737
EC80   EC   0.37500  0.94381  0.51263
EC81   EC   0.44381  0.01263  0.37500
EC82   EC   0.44381  0.23737  0.87500
EC83   EC   0.44381  0.37500  0.01263
EC84   EC   0.44381  0.37500  0.73737
EC85   EC   0.44381  0.51263  0.87500
EC86   EC   0.44381  0.73737  0.37500
EC87   EC   0.44381  0.87500  0.23737
EC88   EC   0.44381  0.87500  0.51263
EC89   EC   0.48737  0.05619  0.62500
EC90   EC   0.48737  0.12500  0.55619
EC91   EC   0.48737  0.12500  0.69381
EC92   EC   0.48737  0.19381  0.62500
EC93   EC   0.48737  0.55619  0.12500
EC94   EC   0.48737  0.62500  0.05619
EC95   EC   0.48737  0.62500  0.19381
EC96   EC   0.48737  0.69381  0.12500
EC97   EC   0.51263  0.30619  0.87500
EC98   EC   0.51263  0.37500  0.80619
EC99   EC   0.51263  0.37500  0.94381
EC100  EC   0.51263  0.44381  0.87500
EC101  EC   0.51263  0.80619  0.37500
EC102  EC   0.51263  0.87500  0.30619
EC103  EC   0.51263  0.87500  0.44381
EC104  EC   0.51263  0.94381  0.37500
EC105  EC   0.55619  0.12500  0.48737
EC106  EC   0.55619  0.12500  0.76263
EC107  EC   0.55619  0.26263  0.62500
EC108  EC   0.55619  0.48737  0.12500
EC109  EC   0.55619  0.62500  0.26263
EC110  EC   0.55619  0.62500  0.98737
EC111  EC   0.55619  0.76263  0.12500
EC112  EC   0.55619  0.98737  0.62500
EC113  EC   0.62500  0.05619  0.48737
EC114  EC   0.62500  0.05619  0.76263
EC115  EC   0.62500  0.19381  0.48737
EC116  EC   0.62500  0.19381  0.76263
EC117  EC   0.62500  0.26263  0.55619
EC118  EC   0.62500  0.26263  0.69381
EC119  EC   0.62500  0.48737  0.05619
EC120  EC   0.62500  0.48737  0.19381
EC121  EC   0.62500  0.55619  0.26263
EC122  EC   0.62500  0.55619  0.98737
EC123  EC   0.62500  0.69381  0.26263
EC124  EC   0.62500  0.69381  0.98737
EC125  EC   0.62500  0.76263  0.05619
EC126  EC   0.62500  0.76263  0.19381
EC127  EC   0.62500  0.98737  0.55619
EC128  EC   0.62500  0.98737  0.69381
EC129  EC   0.69381  0.12500  0.48737
EC130  EC   0.69381  0.12500  0.76263
EC131  EC   0.69381  0.26263  0.62500
EC132  EC   0.69381  0.48737  0.12500
EC133  EC   0.69381  0.62500  0.26263
EC134  EC   0.69381  0.62500  0.98737
EC135  EC   0.69381  0.76263  0.12500
EC136  EC   0.69381  0.98737  0.62500
EC137  EC   0.73737  0.30619  0.37500
EC138  EC   0.73737  0.37500  0.30619
EC139  EC   0.73737  0.37500  0.44381
EC140  EC   0.73737  0.44381  0.37500
EC141  EC   0.73737  0.80619  0.87500
EC142  EC   0.73737  0.87500  0.80619
EC143  EC   0.73737  0.87500  0.94381
EC144  EC   0.73737  0.94381  0.87500
EC145  EC   0.76263  0.05619  0.62500
EC146  EC   0.76263  0.12500  0.55619
EC147  EC   0.76263  0.12500  0.69381
EC148  EC   0.76263  0.19381  0.62500
EC149  EC   0.76263  0.55619  0.12500
EC150  EC   0.76263  0.62500  0.05619
EC151  EC   0.76263  0.62500  0.19381
EC152  EC   0.76263  0.69381  0.12500
EC153  EC   0.80619  0.01263  0.87500
EC154  EC   0.80619  0.23737  0.37500
EC155  EC   0.80619  0.37500  0.23737
EC156  EC   0.80619  0.37500  0.51263
EC157  EC   0.80619  0.51263  0.37500
EC158  EC   0.80619  0.73737  0.87500
EC159  EC   0.80619  0.87500  0.01263
EC160  EC   0.80619  0.87500  0.73737
EC161  EC   0.87500  0.01263  0.80619
EC162  EC   0.87500  0.01263  0.94381
EC163  EC   0.87500  0.23737  0.30619
EC164  EC   0.87500  0.23737  0.44381
EC165  EC   0.87500  0.30619  0.23737
EC166  EC   0.87500  0.30619  0.51263
EC167  EC   0.87500  0.44381  0.23737
EC168  EC   0.87500  0.44381  0.51263
EC169  EC   0.87500  0.51263  0.30619
EC170  EC   0.87500  0.51263  0.44381
EC171  EC   0.87500  0.73737  0.80619
EC172  EC   0.87500  0.73737  0.94381
EC173  EC   0.87500  0.80619  0.01263
EC174  EC   0.87500  0.80619  0.73737
EC175  EC   0.87500  0.94381  0.01263
EC176  EC   0.87500  0.94381  0.73737
EC177  EC   0.94381  0.01263  0.87500
EC178  EC   0.94381  0.23737  0.37500
EC179  EC   0.94381  0.37500  0.23737
EC180  EC   0.94381  0.37500  0.51263
EC181  EC   0.94381  0.51263  0.37500
EC182  EC   0.94381  0.73737  0.87500
EC183  EC   0.94381  0.87500  0.01263
EC184  EC   0.94381  0.87500  0.73737
EC185  EC   0.98737  0.05619  0.12500
EC186  EC   0.98737  0.12500  0.05619
EC187  EC   0.98737  0.12500  0.19381
EC188  EC   0.98737  0.19381  0.12500
EC189  EC   0.98737  0.55619  0.62500
EC190  EC   0.98737  0.62500  0.55619
EC191  EC   0.98737  0.62500  0.69381
EC192  EC   0.98737  0.69381  0.62500
E1    E   0.01263  0.34059  0.34059
E2    E   0.01263  0.34059  0.40941
E3    E   0.01263  0.40941  0.34059
E4    E   0.01263  0.40941  0.40941
E5    E   0.01263  0.84059  0.84059
E6    E   0.01263  0.84059  0.90941
E7    E   0.01263  0.90941  0.84059
E8    E   0.01263  0.90941  0.90941
E9    E   0.02178  0.02178  0.12500
E10   E   0.02178  0.12500  0.02178
E11   E   0.02178  0.12500  0.22822
E12   E   0.02178  0.22822  0.12500
E13   E   0.02178  0.52178  0.62500
E14   E   0.02178  0.62500  0.52178
E15   E   0.02178  0.62500  0.72822
E16   E   0.02178  0.72822  0.62500
E17   E   0.02178  0.02178  0.12500
E18   E   0.02178  0.12500  0.02178
E19   E   0.02178  0.12500  0.22822
E20   E   0.02178  0.22822  0.12500
E21   E   0.02178  0.52178  0.62500
E22   E   0.02178  0.62500  0.52178
E23   E   0.02178  0.62500  0.72822
E24   E   0.02178  0.72822  0.62500
E25   E   0.02809  0.09691  0.95928
E26   E   0.02809  0.15309  0.29072
E27   E   0.02809  0.29072  0.15309
E28   E   0.02809  0.45928  0.59691
E29   E   0.02809  0.59691  0.45928
E30   E   0.02809  0.65309  0.79072
E31   E   0.02809  0.79072  0.65309
E32   E   0.02809  0.95928  0.09691
E33   E   0.03441  0.03441  0.93119
E34   E   0.03441  0.21559  0.31881
E35   E   0.03441  0.31881  0.21559
E36   E   0.03441  0.43119  0.53441
E37   E   0.03441  0.53441  0.43119
E38   E   0.03441  0.71559  0.81881
E39   E   0.03441  0.81881  0.71559
E40   E   0.03441  0.93119  0.03441
E41   E   0.03441  0.03441  0.93119
E42   E   0.03441  0.21559  0.31881
E43   E   0.03441  0.31881  0.21559
E44   E   0.03441  0.43119  0.53441
E45   E   0.03441  0.53441  0.43119
E46   E   0.03441  0.71559  0.81881
E47   E   0.03441  0.81881  0.71559
E48   E   0.03441  0.93119  0.03441
E49   E   0.04072  0.27809  0.34691
E50   E   0.04072  0.34691  0.27809
E51   E   0.04072  0.40309  0.47191
E52   E   0.04072  0.47191  0.40309
E53   E   0.04072  0.77809  0.84691
E54   E   0.04072  0.84691  0.77809
E55   E   0.04072  0.90309  0.97191
E56   E   0.04072  0.97191  0.90309
E57   E   0.06881  0.28441  0.28441
E58   E   0.06881  0.46559  0.46559
E59   E   0.06881  0.78441  0.78441
E60   E   0.06881  0.96559  0.96559
E61   E   0.09059  0.09059  0.26263
E62   E   0.09059  0.09059  0.98737
E63   E   0.09059  0.15941  0.26263
E64   E   0.09059  0.15941  0.98737
E65   E   0.09059  0.26263  0.09059
E66   E   0.09059  0.26263  0.15941
E67   E   0.09059  0.48737  0.59059
E68   E   0.09059  0.48737  0.65941
E69   E   0.09059  0.59059  0.48737
E70   E   0.09059  0.59059  0.76263
E71   E   0.09059  0.65941  0.48737
E72   E   0.09059  0.65941  0.76263
E73   E   0.09059  0.76263  0.59059
E74   E   0.09059  0.76263  0.65941
E75   E   0.09059  0.98737  0.09059
E76   E   0.09059  0.98737  0.15941
E77   E   0.09691  0.02809  0.95928
E78   E   0.09691  0.22191  0.29072
E79   E   0.09691  0.29072  0.22191
E80   E   0.09691  0.45928  0.52809
E81   E   0.09691  0.52809  0.45928
E82   E   0.09691  0.72191  0.79072
E83   E   0.09691  0.79072  0.72191
E84   E   0.09691  0.95928  0.02809
E85   E   0.12500  0.02178  0.02178
E86   E   0.12500  0.02178  0.22822
E87   E   0.12500  0.02178  0.02178
E88   E   0.12500  0.02178  0.22822
E89   E   0.12500  0.22822  0.02178
E90   E   0.12500  0.22822  0.02178
E91   E   0.12500  0.22822  0.22822
E92   E   0.12500  0.52178  0.52178
E93   E   0.12500  0.52178  0.72822
E94   E   0.12500  0.72822  0.52178
E95   E   0.12500  0.72822  0.72822
E96   E   0.15309  0.02809  0.29072
E97   E   0.15309  0.22191  0.95928
E98   E   0.15309  0.29072  0.02809
E99   E   0.15309  0.45928  0.72191
E100  E   0.15309  0.52809  0.79072
E101  E   0.15309  0.72191  0.45928
E102  E   0.15309  0.79072  0.52809
E103  E   0.15309  0.95928  0.22191
E104  E   0.15941  0.09059  0.26263
E105  E   0.15941  0.09059  0.98737
E106  E   0.15941  0.15941  0.26263
E107  E   0.15941  0.15941  0.98737
E108  E   0.15941  0.26263  0.09059
E109  E   0.15941  0.26263  0.15941
E110  E   0.15941  0.48737  0.59059
E111  E   0.15941  0.48737  0.65941
E112  E   0.15941  0.59059  0.48737
E113  E   0.15941  0.59059  0.76263
E114  E   0.15941  0.65941  0.48737
E115  E   0.15941  0.65941  0.76263
E116  E   0.15941  0.76263  0.59059
E117  E   0.15941  0.76263  0.65941
E118  E   0.15941  0.98737  0.09059
E119  E   0.15941  0.98737  0.15941
E120  E   0.18119  0.28441  0.96559
E121  E   0.18119  0.46559  0.78441
E122  E   0.18119  0.78441  0.46559
E123  E   0.18119  0.96559  0.28441
E124  E   0.20928  0.27809  0.90309
E125  E   0.20928  0.34691  0.97191
E126  E   0.20928  0.40309  0.77809
E127  E   0.20928  0.47191  0.84691
E128  E   0.20928  0.77809  0.40309
E129  E   0.20928  0.84691  0.47191
E130  E   0.20928  0.90309  0.27809
E131  E   0.20928  0.97191  0.34691
E132  E   0.21559  0.03441  0.31881
E133  E   0.21559  0.03441  0.31881
E134  E   0.21559  0.21559  0.93119
E135  E   0.21559  0.31881  0.03441
E136  E   0.21559  0.31881  0.03441
E137  E   0.21559  0.43119  0.71559
E138  E   0.21559  0.53441  0.81881
E139  E   0.21559  0.71559  0.43119
E140  E   0.21559  0.81881  0.53441
E141  E   0.21559  0.93119  0.21559
E142  E   0.22191  0.09691  0.29072
E143  E   0.22191  0.15309  0.95928
E144  E   0.22191  0.29072  0.09691
E145  E   0.22191  0.45928  0.65309
E146  E   0.22191  0.59691  0.79072
E147  E   0.22191  0.65309  0.45928
E148  E   0.22191  0.79072  0.59691
E149  E   0.22191  0.95928  0.15309
E150  E   0.22822  0.02178  0.12500
E151  E   0.22822  0.02178  0.12500
E152  E   0.22822  0.12500  0.02178
E153  E   0.22822  0.12500  0.02178
E154  E   0.22822  0.12500  0.22822
E155  E   0.22822  0.22822  0.12500
E156  E   0.22822  0.52178  0.62500
E157  E   0.22822  0.62500  0.52178
E158  E   0.22822  0.62500  0.72822
E159  E   0.22822  0.72822  0.62500
E160  E   0.23737  0.34059  0.84059
E161  E   0.23737  0.34059  0.90941
E162  E   0.23737  0.40941  0.84059
E163  E   0.23737  0.40941  0.90941
E164  E   0.23737  0.84059  0.34059
E165  E   0.23737  0.84059  0.40941
E166  E   0.23737  0.90941  0.34059
E167  E   0.23737  0.90941  0.40941
E168  E   0.26263  0.09059  0.09059
E169  E   0.26263  0.09059  0.15941
E170  E   0.26263  0.15941  0.09059
E171  E   0.26263  0.15941  0.15941
E172  E   0.26263  0.59059  0.59059
E173  E   0.26263  0.59059  0.65941
E174  E   0.26263  0.65941  0.59059
E175  E   0.26263  0.65941  0.65941
E176  E   0.27178  0.27178  0.87500
E177  E   0.27178  0.37500  0.77178
E178  E   0.27178  0.37500  0.97822
E179  E   0.27178  0.47822  0.87500
E180  E   0.27178  0.77178  0.37500
E181  E   0.27178  0.87500  0.27178
E182  E   0.27178  0.87500  0.47822
E183  E   0.27178  0.97822  0.37500
E184  E   0.27809  0.04072  0.34691
E185  E   0.27809  0.20928  0.90309
E186  E   0.27809  0.34691  0.04072
E187  E   0.27809  0.40309  0.70928
E188  E   0.27809  0.54072  0.84691
E189  E   0.27809  0.70928  0.40309
E190  E   0.27809  0.84691  0.54072
E191  E   0.27809  0.90309  0.20928
E192  E   0.28441  0.06881  0.28441
E193  E   0.28441  0.18119  0.96559
E194  E   0.28441  0.28441  0.06881
E195  E   0.28441  0.46559  0.68119
E196  E   0.28441  0.56881  0.78441
E197  E   0.28441  0.68119  0.46559
E198  E   0.28441  0.78441  0.56881
E199  E   0.28441  0.96559  0.18119
E200  E   0.29072  0.02809  0.15309
E201  E   0.29072  0.09691  0.22191
E202  E   0.29072  0.15309  0.02809
E203  E   0.29072  0.22191  0.09691
E204  E   0.29072  0.52809  0.65309
E205  E   0.29072  0.59691  0.72191
E206  E   0.29072  0.65309  0.52809
E207  E   0.29072  0.72191  0.59691
E208  E   0.31881  0.03441  0.21559
E209  E   0.31881  0.03441  0.21559
E210  E   0.31881  0.21559  0.03441
E211  E   0.31881  0.21559  0.03441
E212  E   0.31881  0.53441  0.71559
E213  E   0.31881  0.71559  0.53441
E214  E   0.34059  0.01263  0.34059
E215  E   0.34059  0.01263  0.40941
E216  E   0.34059  0.23737  0.84059
E217  E   0.34059  0.23737  0.90941
E218  E   0.34059  0.34059  0.01263
E219  E   0.34059  0.34059  0.73737
E220  E   0.34059  0.40941  0.01263
E221  E   0.34059  0.40941  0.73737
E222  E   0.34059  0.51263  0.84059
E223  E   0.34059  0.51263  0.90941
E224  E   0.34059  0.73737  0.34059
E225  E   0.34059  0.73737  0.40941
E226  E   0.34059  0.84059  0.23737
E227  E   0.34059  0.84059  0.51263
E228  E   0.34059  0.90941  0.23737
E229  E   0.34059  0.90941  0.51263
E230  E   0.34691  0.04072  0.27809
E231  E   0.34691  0.20928  0.97191
E232  E   0.34691  0.27809  0.04072
E233  E   0.34691  0.47191  0.70928
E234  E   0.34691  0.54072  0.77809
E235  E   0.34691  0.70928  0.47191
E236  E   0.34691  0.77809  0.54072
E237  E   0.34691  0.97191  0.20928
E238  E   0.37500  0.27178  0.77178
E239  E   0.37500  0.27178  0.97822
E240  E   0.37500  0.47822  0.77178
E241  E   0.37500  0.47822  0.97822
E242  E   0.37500  0.77178  0.27178
E243  E   0.37500  0.77178  0.47822
E244  E   0.37500  0.97822  0.27178
E245  E   0.37500  0.97822  0.47822
E246  E   0.40309  0.04072  0.47191
E247  E   0.40309  0.20928  0.77809
E248  E   0.40309  0.27809  0.70928
E249  E   0.40309  0.47191  0.04072
E250  E   0.40309  0.54072  0.97191
E251  E   0.40309  0.70928  0.27809
E252  E   0.40309  0.77809  0.20928
E253  E   0.40309  0.97191  0.54072
E254  E   0.40941  0.01263  0.34059
E255  E   0.40941  0.01263  0.40941
E256  E   0.40941  0.23737  0.84059
E257  E   0.40941  0.23737  0.90941
E258  E   0.40941  0.34059  0.01263
E259  E   0.40941  0.34059  0.73737
E260  E   0.40941  0.40941  0.01263
E261  E   0.40941  0.40941  0.73737
E262  E   0.40941  0.51263  0.84059
E263  E   0.40941  0.51263  0.90941
E264  E   0.40941  0.73737  0.34059
E265  E   0.40941  0.73737  0.40941
E266  E   0.40941  0.84059  0.23737
E267  E   0.40941  0.84059  0.51263
E268  E   0.40941  0.90941  0.23737
E269  E   0.40941  0.90941  0.51263
E270  E   0.43119  0.03441  0.53441
E271  E   0.43119  0.03441  0.53441
E272  E   0.43119  0.21559  0.71559
E273  E   0.43119  0.53441  0.03441
E274  E   0.43119  0.53441  0.03441
E275  E   0.43119  0.71559  0.21559
E276  E   0.45928  0.02809  0.59691
E277  E   0.45928  0.09691  0.52809
E278  E   0.45928  0.15309  0.72191
E279  E   0.45928  0.22191  0.65309
E280  E   0.45928  0.52809  0.09691
E281  E   0.45928  0.59691  0.02809
E282  E   0.45928  0.65309  0.22191
E283  E   0.45928  0.72191  0.15309
E284  E   0.46559  0.06881  0.46559
E285  E   0.46559  0.18119  0.78441
E286  E   0.46559  0.28441  0.68119
E287  E   0.46559  0.46559  0.06881
E288  E   0.46559  0.56881  0.96559
E289  E   0.46559  0.68119  0.28441
E290  E   0.46559  0.78441  0.18119
E291  E   0.46559  0.96559  0.56881
E292  E   0.47191  0.04072  0.40309
E293  E   0.47191  0.20928  0.84691
E294  E   0.47191  0.34691  0.70928
E295  E   0.47191  0.40309  0.04072
E296  E   0.47191  0.54072  0.90309
E297  E   0.47191  0.70928  0.34691
E298  E   0.47191  0.84691  0.20928
E299  E   0.47191  0.90309  0.54072
E300  E   0.47822  0.27178  0.87500
E301  E   0.47822  0.37500  0.77178
E302  E   0.47822  0.37500  0.97822
E303  E   0.47822  0.47822  0.87500
E304  E   0.47822  0.77178  0.37500
E305  E   0.47822  0.87500  0.27178
E306  E   0.47822  0.87500  0.47822
E307  E   0.47822  0.97822  0.37500
E308  E   0.48737  0.09059  0.59059
E309  E   0.48737  0.09059  0.65941
E310  E   0.48737  0.15941  0.59059
E311  E   0.48737  0.15941  0.65941
E312  E   0.48737  0.59059  0.09059
E313  E   0.48737  0.59059  0.15941
E314  E   0.48737  0.65941  0.09059
E315  E   0.48737  0.65941  0.15941
E316  E   0.51263  0.34059  0.84059
E317  E   0.51263  0.34059  0.90941
E318  E   0.51263  0.40941  0.84059
E319  E   0.51263  0.40941  0.90941
E320  E   0.51263  0.84059  0.34059
E321  E   0.51263  0.84059  0.40941
E322  E   0.51263  0.90941  0.34059
E323  E   0.51263  0.90941  0.40941
E324  E   0.52178  0.02178  0.62500
E325  E   0.52178  0.02178  0.62500
E326  E   0.52178  0.12500  0.52178
E327  E   0.52178  0.12500  0.72822
E328  E   0.52178  0.22822  0.62500
E329  E   0.52178  0.52178  0.12500
E330  E   0.52178  0.62500  0.02178
E331  E   0.52178  0.62500  0.02178
E332  E   0.52178  0.62500  0.22822
E333  E   0.52178  0.72822  0.12500
E334  E   0.52809  0.09691  0.45928
E335  E   0.52809  0.15309  0.79072
E336  E   0.52809  0.29072  0.65309
E337  E   0.52809  0.45928  0.09691
E338  E   0.52809  0.59691  0.95928
E339  E   0.52809  0.65309  0.29072
E340  E   0.52809  0.79072  0.15309
E341  E   0.52809  0.95928  0.59691
E342  E   0.53441  0.03441  0.43119
E343  E   0.53441  0.03441  0.43119
E344  E   0.53441  0.21559  0.81881
E345  E   0.53441  0.31881  0.71559
E346  E   0.53441  0.43119  0.03441
E347  E   0.53441  0.43119  0.03441
E348  E   0.53441  0.53441  0.93119
E349  E   0.53441  0.71559  0.31881
E350  E   0.53441  0.81881  0.21559
E351  E   0.53441  0.93119  0.53441
E352  E   0.54072  0.27809  0.84691
E353  E   0.54072  0.34691  0.77809
E354  E   0.54072  0.40309  0.97191
E355  E   0.54072  0.47191  0.90309
E356  E   0.54072  0.77809  0.34691
E357  E   0.54072  0.84691  0.27809
E358  E   0.54072  0.90309  0.47191
E359  E   0.54072  0.97191  0.40309
E360  E   0.56881  0.28441  0.78441
E361  E   0.56881  0.46559  0.96559
E362  E   0.56881  0.78441  0.28441
E363  E   0.56881  0.96559  0.46559
E364  E   0.59059  0.09059  0.48737
E365  E   0.59059  0.09059  0.76263
E366  E   0.59059  0.15941  0.48737
E367  E   0.59059  0.15941  0.76263
E368  E   0.59059  0.26263  0.59059
E369  E   0.59059  0.26263  0.65941
E370  E   0.59059  0.48737  0.09059
E371  E   0.59059  0.48737  0.15941
E372  E   0.59059  0.59059  0.26263
E373  E   0.59059  0.59059  0.98737
E374  E   0.59059  0.65941  0.26263
E375  E   0.59059  0.65941  0.98737
E376  E   0.59059  0.76263  0.09059
E377  E   0.59059  0.76263  0.15941
E378  E   0.59059  0.98737  0.59059
E379  E   0.59059  0.98737  0.65941
E380  E   0.59691  0.02809  0.45928
E381  E   0.59691  0.22191  0.79072
E382  E   0.59691  0.29072  0.72191
E383  E   0.59691  0.45928  0.02809
E384  E   0.59691  0.52809  0.95928
E385  E   0.59691  0.72191  0.29072
E386  E   0.59691  0.79072  0.22191
E387  E   0.59691  0.95928  0.52809
E388  E   0.62500  0.02178  0.52178
E389  E   0.62500  0.02178  0.72822
E390  E   0.62500  0.02178  0.52178
E391  E   0.62500  0.02178  0.72822
E392  E   0.62500  0.22822  0.52178
E393  E   0.62500  0.22822  0.72822
E394  E   0.62500  0.52178  0.02178
E395  E   0.62500  0.52178  0.02178
E396  E   0.62500  0.52178  0.22822
E397  E   0.62500  0.72822  0.02178
E398  E   0.62500  0.72822  0.02178
E399  E   0.62500  0.72822  0.22822
E400  E   0.65309  0.02809  0.79072
E401  E   0.65309  0.22191  0.45928
E402  E   0.65309  0.29072  0.52809
E403  E   0.65309  0.45928  0.22191
E404  E   0.65309  0.52809  0.29072
E405  E   0.65309  0.72191  0.95928
E406  E   0.65309  0.79072  0.02809
E407  E   0.65309  0.95928  0.72191
E408  E   0.65941  0.09059  0.48737
E409  E   0.65941  0.09059  0.76263
E410  E   0.65941  0.15941  0.48737
E411  E   0.65941  0.15941  0.76263
E412  E   0.65941  0.26263  0.59059
E413  E   0.65941  0.26263  0.65941
E414  E   0.65941  0.48737  0.09059
E415  E   0.65941  0.48737  0.15941
E416  E   0.65941  0.59059  0.26263
E417  E   0.65941  0.59059  0.98737
E418  E   0.65941  0.65941  0.26263
E419  E   0.65941  0.65941  0.98737
E420  E   0.65941  0.76263  0.09059
E421  E   0.65941  0.76263  0.15941
E422  E   0.65941  0.98737  0.59059
E423  E   0.65941  0.98737  0.65941
E424  E   0.68119  0.28441  0.46559
E425  E   0.68119  0.46559  0.28441
E426  E   0.68119  0.78441  0.96559
E427  E   0.68119  0.96559  0.78441
E428  E   0.70928  0.27809  0.40309
E429  E   0.70928  0.34691  0.47191
E430  E   0.70928  0.40309  0.27809
E431  E   0.70928  0.47191  0.34691
E432  E   0.70928  0.77809  0.90309
E433  E   0.70928  0.84691  0.97191
E434  E   0.70928  0.90309  0.77809
E435  E   0.70928  0.97191  0.84691
E436  E   0.71559  0.03441  0.81881
E437  E   0.71559  0.03441  0.81881
E438  E   0.71559  0.21559  0.43119
E439  E   0.71559  0.31881  0.53441
E440  E   0.71559  0.43119  0.21559
E441  E   0.71559  0.53441  0.31881
E442  E   0.71559  0.71559  0.93119
E443  E   0.71559  0.81881  0.03441
E444  E   0.71559  0.81881  0.03441
E445  E   0.71559  0.93119  0.71559
E446  E   0.72191  0.09691  0.79072
E447  E   0.72191  0.15309  0.45928
E448  E   0.72191  0.29072  0.59691
E449  E   0.72191  0.45928  0.15309
E450  E   0.72191  0.59691  0.29072
E451  E   0.72191  0.65309  0.95928
E452  E   0.72191  0.79072  0.09691
E453  E   0.72191  0.95928  0.65309
E454  E   0.72822  0.02178  0.62500
E455  E   0.72822  0.02178  0.62500
E456  E   0.72822  0.12500  0.52178
E457  E   0.72822  0.12500  0.72822
E458  E   0.72822  0.22822  0.62500
E459  E   0.72822  0.52178  0.12500
E460  E   0.72822  0.62500  0.02178
E461  E   0.72822  0.62500  0.02178
E462  E   0.72822  0.62500  0.22822
E463  E   0.72822  0.72822  0.12500
E464  E   0.73737  0.34059  0.34059
E465  E   0.73737  0.34059  0.40941
E466  E   0.73737  0.40941  0.34059
E467  E   0.73737  0.40941  0.40941
E468  E   0.73737  0.84059  0.84059
E469  E   0.73737  0.84059  0.90941
E470  E   0.73737  0.90941  0.84059
E471  E   0.73737  0.90941  0.90941
E472  E   0.76263  0.09059  0.59059
E473  E   0.76263  0.09059  0.65941
E474  E   0.76263  0.15941  0.59059
E475  E   0.76263  0.15941  0.65941
E476  E   0.76263  0.59059  0.09059
E477  E   0.76263  0.59059  0.15941
E478  E   0.76263  0.65941  0.09059
E479  E   0.76263  0.65941  0.15941
E480  E   0.77178  0.27178  0.37500
E481  E   0.77178  0.37500  0.27178
E482  E   0.77178  0.37500  0.47822
E483  E   0.77178  0.47822  0.37500
E484  E   0.77178  0.77178  0.87500
E485  E   0.77178  0.87500  0.77178
E486  E   0.77178  0.87500  0.97822
E487  E   0.77178  0.97822  0.87500
E488  E   0.77809  0.04072  0.84691
E489  E   0.77809  0.20928  0.40309
E490  E   0.77809  0.34691  0.54072
E491  E   0.77809  0.40309  0.20928
E492  E   0.77809  0.54072  0.34691
E493  E   0.77809  0.70928  0.90309
E494  E   0.77809  0.84691  0.04072
E495  E   0.77809  0.90309  0.70928
E496  E   0.78441  0.06881  0.78441
E497  E   0.78441  0.18119  0.46559
E498  E   0.78441  0.28441  0.56881
E499  E   0.78441  0.46559  0.18119
E500  E   0.78441  0.56881  0.28441
E501  E   0.78441  0.68119  0.96559
E502  E   0.78441  0.78441  0.06881
E503  E   0.78441  0.96559  0.68119
E504  E   0.79072  0.02809  0.65309
E505  E   0.79072  0.09691  0.72191
E506  E   0.79072  0.15309  0.52809
E507  E   0.79072  0.22191  0.59691
E508  E   0.79072  0.52809  0.15309
E509  E   0.79072  0.59691  0.22191
E510  E   0.79072  0.65309  0.02809
E511  E   0.79072  0.72191  0.09691
E512  E   0.81881  0.03441  0.71559
E513  E   0.81881  0.03441  0.71559
E514  E   0.81881  0.21559  0.53441
E515  E   0.81881  0.53441  0.21559
E516  E   0.81881  0.71559  0.03441
E517  E   0.81881  0.71559  0.03441
E518  E   0.84059  0.01263  0.84059
E519  E   0.84059  0.01263  0.90941
E520  E   0.84059  0.23737  0.34059
E521  E   0.84059  0.23737  0.40941
E522  E   0.84059  0.34059  0.23737
E523  E   0.84059  0.34059  0.51263
E524  E   0.84059  0.40941  0.23737
E525  E   0.84059  0.40941  0.51263
E526  E   0.84059  0.51263  0.34059
E527  E   0.84059  0.51263  0.40941
E528  E   0.84059  0.73737  0.84059
E529  E   0.84059  0.73737  0.90941
E530  E   0.84059  0.84059  0.01263
E531  E   0.84059  0.84059  0.73737
E532  E   0.84059  0.90941  0.01263
E533  E   0.84059  0.90941  0.73737
E534  E   0.84691  0.04072  0.77809
E535  E   0.84691  0.20928  0.47191
E536  E   0.84691  0.27809  0.54072
E537  E   0.84691  0.47191  0.20928
E538  E   0.84691  0.54072  0.27809
E539  E   0.84691  0.70928  0.97191
E540  E   0.84691  0.77809  0.04072
E541  E   0.84691  0.97191  0.70928
E542  E   0.87500  0.27178  0.27178
E543  E   0.87500  0.27178  0.47822
E544  E   0.87500  0.47822  0.27178
E545  E   0.87500  0.47822  0.47822
E546  E   0.87500  0.77178  0.77178
E547  E   0.87500  0.77178  0.97822
E548  E   0.87500  0.97822  0.77178
E549  E   0.87500  0.97822  0.97822
E550  E   0.90309  0.04072  0.97191
E551  E   0.90309  0.20928  0.27809
E552  E   0.90309  0.27809  0.20928
E553  E   0.90309  0.47191  0.54072
E554  E   0.90309  0.54072  0.47191
E555  E   0.90309  0.70928  0.77809
E556  E   0.90309  0.77809  0.70928
E557  E   0.90309  0.97191  0.04072
E558  E   0.90941  0.01263  0.84059
E559  E   0.90941  0.01263  0.90941
E560  E   0.90941  0.23737  0.34059
E561  E   0.90941  0.23737  0.40941
E562  E   0.90941  0.34059  0.23737
E563  E   0.90941  0.34059  0.51263
E564  E   0.90941  0.40941  0.23737
E565  E   0.90941  0.40941  0.51263
E566  E   0.90941  0.51263  0.34059
E567  E   0.90941  0.51263  0.40941
E568  E   0.90941  0.73737  0.84059
E569  E   0.90941  0.73737  0.90941
E570  E   0.90941  0.84059  0.01263
E571  E   0.90941  0.84059  0.73737
E572  E   0.90941  0.90941  0.01263
E573  E   0.90941  0.90941  0.73737
E574  E   0.93119  0.03441  0.03441
E575  E   0.93119  0.03441  0.03441
E576  E   0.93119  0.21559  0.21559
E577  E   0.93119  0.53441  0.53441
E578  E   0.93119  0.71559  0.71559
E579  E   0.95928  0.02809  0.09691
E580  E   0.95928  0.09691  0.02809
E581  E   0.95928  0.15309  0.22191
E582  E   0.95928  0.22191  0.15309
E583  E   0.95928  0.52809  0.59691
E584  E   0.95928  0.59691  0.52809
E585  E   0.95928  0.65309  0.72191
E586  E   0.95928  0.72191  0.65309
E587  E   0.96559  0.06881  0.96559
E588  E   0.96559  0.18119  0.28441
E589  E   0.96559  0.28441  0.18119
E590  E   0.96559  0.46559  0.56881
E591  E   0.96559  0.56881  0.46559
E592  E   0.96559  0.68119  0.78441
E593  E   0.96559  0.78441  0.68119
E594  E   0.96559  0.96559  0.06881
E595  E   0.97191  0.04072  0.90309
E596  E   0.97191  0.20928  0.34691
E597  E   0.97191  0.34691  0.20928
E598  E   0.97191  0.40309  0.54072
E599  E   0.97191  0.54072  0.40309
E600  E   0.97191  0.70928  0.84691
E601  E   0.97191  0.84691  0.70928
E602  E   0.97191  0.90309  0.04072
E603  E   0.97822  0.27178  0.37500
E604  E   0.97822  0.37500  0.27178
E605  E   0.97822  0.37500  0.47822
E606  E   0.97822  0.47822  0.37500
E607  E   0.97822  0.77178  0.87500
E608  E   0.97822  0.87500  0.77178
E609  E   0.97822  0.87500  0.97822
E610  E   0.97822  0.97822  0.87500
E611  E   0.98737  0.09059  0.09059
E612  E   0.98737  0.09059  0.15941
E613  E   0.98737  0.15941  0.09059
E614  E   0.98737  0.15941  0.15941
E615  E   0.98737  0.59059  0.59059
E616  E   0.98737  0.59059  0.65941
E617  E   0.98737  0.65941  0.59059
E618  E   0.98737  0.65941  0.65941
loop_
