data_bav_Fd-3m:2  hall_number: 526, V_con: 4, EC_con: 4
_audit_creation_date              2025-03-06
_audit_creation_method            'MOFbuilder_1.0'
_symmetry_space_group_name_H-M    'P1'
_symmetry_Int_Tables_number       1
_symmetry_cell_setting            triclinic
loop_
_symmetry_equiv_pos_as_xyz
  x,y,z
_cell_length_a                    12.58508
_cell_length_b                    12.58508
_cell_length_c                    12.58508
_cell_angle_alpha                 90.0
_cell_angle_beta                  90.0
_cell_angle_gamma                 90.0
loop_
_atom_site_label
_atom_site_type_symbol
_atom_site_fract_x
_atom_site_fract_y
_atom_site_fract_z
V1    V   0.02294  0.07912  0.96675
V2    V   0.02294  0.17088  0.28325
V3    V   0.02294  0.28325  0.17088
V4    V   0.02294  0.46675  0.57912
V5    V   0.02294  0.57912  0.46675
V6    V   0.02294  0.67088  0.78325
V7    V   0.02294  0.78325  0.67088
V8    V   0.02294  0.96675  0.07912
V9    V   0.03325  0.27294  0.32912
V10   V   0.03325  0.32912  0.27294
V11   V   0.03325  0.42088  0.47706
V12   V   0.03325  0.47706  0.42088
V13   V   0.03325  0.77294  0.82912
V14   V   0.03325  0.82912  0.77294
V15   V   0.03325  0.92088  0.97706
V16   V   0.03325  0.97706  0.92088
V17   V   0.07912  0.02294  0.96675
V18   V   0.07912  0.22706  0.28325
V19   V   0.07912  0.28325  0.22706
V20   V   0.07912  0.46675  0.52294
V21   V   0.07912  0.52294  0.46675
V22   V   0.07912  0.72706  0.78325
V23   V   0.07912  0.78325  0.72706
V24   V   0.07912  0.96675  0.02294
V25   V   0.17088  0.02294  0.28325
V26   V   0.17088  0.22706  0.96675
V27   V   0.17088  0.28325  0.02294
V28   V   0.17088  0.46675  0.72706
V29   V   0.17088  0.52294  0.78325
V30   V   0.17088  0.72706  0.46675
V31   V   0.17088  0.78325  0.52294
V32   V   0.17088  0.96675  0.22706
V33   V   0.21675  0.27294  0.92088
V34   V   0.21675  0.32912  0.97706
V35   V   0.21675  0.42088  0.77294
V36   V   0.21675  0.47706  0.82912
V37   V   0.21675  0.77294  0.42088
V38   V   0.21675  0.82912  0.47706
V39   V   0.21675  0.92088  0.27294
V40   V   0.21675  0.97706  0.32912
V41   V   0.22706  0.07912  0.28325
V42   V   0.22706  0.17088  0.96675
V43   V   0.22706  0.28325  0.07912
V44   V   0.22706  0.46675  0.67088
V45   V   0.22706  0.57912  0.78325
V46   V   0.22706  0.67088  0.46675
V47   V   0.22706  0.78325  0.57912
V48   V   0.22706  0.96675  0.17088
V49   V   0.27294  0.03325  0.32912
V50   V   0.27294  0.21675  0.92088
V51   V   0.27294  0.32912  0.03325
V52   V   0.27294  0.42088  0.71675
V53   V   0.27294  0.53325  0.82912
V54   V   0.27294  0.71675  0.42088
V55   V   0.27294  0.82912  0.53325
V56   V   0.27294  0.92088  0.21675
V57   V   0.28325  0.02294  0.17088
V58   V   0.28325  0.07912  0.22706
V59   V   0.28325  0.17088  0.02294
V60   V   0.28325  0.22706  0.07912
V61   V   0.28325  0.52294  0.67088
V62   V   0.28325  0.57912  0.72706
V63   V   0.28325  0.67088  0.52294
V64   V   0.28325  0.72706  0.57912
V65   V   0.32912  0.03325  0.27294
V66   V   0.32912  0.21675  0.97706
V67   V   0.32912  0.27294  0.03325
V68   V   0.32912  0.47706  0.71675
V69   V   0.32912  0.53325  0.77294
V70   V   0.32912  0.71675  0.47706
V71   V   0.32912  0.77294  0.53325
V72   V   0.32912  0.97706  0.21675
V73   V   0.42088  0.03325  0.47706
V74   V   0.42088  0.21675  0.77294
V75   V   0.42088  0.27294  0.71675
V76   V   0.42088  0.47706  0.03325
V77   V   0.42088  0.53325  0.97706
V78   V   0.42088  0.71675  0.27294
V79   V   0.42088  0.77294  0.21675
V80   V   0.42088  0.97706  0.53325
V81   V   0.46675  0.02294  0.57912
V82   V   0.46675  0.07912  0.52294
V83   V   0.46675  0.17088  0.72706
V84   V   0.46675  0.22706  0.67088
V85   V   0.46675  0.52294  0.07912
V86   V   0.46675  0.57912  0.02294
V87   V   0.46675  0.67088  0.22706
V88   V   0.46675  0.72706  0.17088
V89   V   0.47706  0.03325  0.42088
V90   V   0.47706  0.21675  0.82912
V91   V   0.47706  0.32912  0.71675
V92   V   0.47706  0.42088  0.03325
V93   V   0.47706  0.53325  0.92088
V94   V   0.47706  0.71675  0.32912
V95   V   0.47706  0.82912  0.21675
V96   V   0.47706  0.92088  0.53325
V97   V   0.52294  0.07912  0.46675
V98   V   0.52294  0.17088  0.78325
V99   V   0.52294  0.28325  0.67088
V100  V   0.52294  0.46675  0.07912
V101  V   0.52294  0.57912  0.96675
V102  V   0.52294  0.67088  0.28325
V103  V   0.52294  0.78325  0.17088
V104  V   0.52294  0.96675  0.57912
V105  V   0.53325  0.27294  0.82912
V106  V   0.53325  0.32912  0.77294
V107  V   0.53325  0.42088  0.97706
V108  V   0.53325  0.47706  0.92088
V109  V   0.53325  0.77294  0.32912
V110  V   0.53325  0.82912  0.27294
V111  V   0.53325  0.92088  0.47706
V112  V   0.53325  0.97706  0.42088
V113  V   0.57912  0.02294  0.46675
V114  V   0.57912  0.22706  0.78325
V115  V   0.57912  0.28325  0.72706
V116  V   0.57912  0.46675  0.02294
V117  V   0.57912  0.52294  0.96675
V118  V   0.57912  0.72706  0.28325
V119  V   0.57912  0.78325  0.22706
V120  V   0.57912  0.96675  0.52294
V121  V   0.67088  0.02294  0.78325
V122  V   0.67088  0.22706  0.46675
V123  V   0.67088  0.28325  0.52294
V124  V   0.67088  0.46675  0.22706
V125  V   0.67088  0.52294  0.28325
V126  V   0.67088  0.72706  0.96675
V127  V   0.67088  0.78325  0.02294
V128  V   0.67088  0.96675  0.72706
V129  V   0.71675  0.27294  0.42088
V130  V   0.71675  0.32912  0.47706
V131  V   0.71675  0.42088  0.27294
V132  V   0.71675  0.47706  0.32912
V133  V   0.71675  0.77294  0.92088
V134  V   0.71675  0.82912  0.97706
V135  V   0.71675  0.92088  0.77294
V136  V   0.71675  0.97706  0.82912
V137  V   0.72706  0.07912  0.78325
V138  V   0.72706  0.17088  0.46675
V139  V   0.72706  0.28325  0.57912
V140  V   0.72706  0.46675  0.17088
V141  V   0.72706  0.57912  0.28325
V142  V   0.72706  0.67088  0.96675
V143  V   0.72706  0.78325  0.07912
V144  V   0.72706  0.96675  0.67088
V145  V   0.77294  0.03325  0.82912
V146  V   0.77294  0.21675  0.42088
V147  V   0.77294  0.32912  0.53325
V148  V   0.77294  0.42088  0.21675
V149  V   0.77294  0.53325  0.32912
V150  V   0.77294  0.71675  0.92088
V151  V   0.77294  0.82912  0.03325
V152  V   0.77294  0.92088  0.71675
V153  V   0.78325  0.02294  0.67088
V154  V   0.78325  0.07912  0.72706
V155  V   0.78325  0.17088  0.52294
V156  V   0.78325  0.22706  0.57912
V157  V   0.78325  0.52294  0.17088
V158  V   0.78325  0.57912  0.22706
V159  V   0.78325  0.67088  0.02294
V160  V   0.78325  0.72706  0.07912
V161  V   0.82912  0.03325  0.77294
V162  V   0.82912  0.21675  0.47706
V163  V   0.82912  0.27294  0.53325
V164  V   0.82912  0.47706  0.21675
V165  V   0.82912  0.53325  0.27294
V166  V   0.82912  0.71675  0.97706
V167  V   0.82912  0.77294  0.03325
V168  V   0.82912  0.97706  0.71675
V169  V   0.92088  0.03325  0.97706
V170  V   0.92088  0.21675  0.27294
V171  V   0.92088  0.27294  0.21675
V172  V   0.92088  0.47706  0.53325
V173  V   0.92088  0.53325  0.47706
V174  V   0.92088  0.71675  0.77294
V175  V   0.92088  0.77294  0.71675
V176  V   0.92088  0.97706  0.03325
V177  V   0.96675  0.02294  0.07912
V178  V   0.96675  0.07912  0.02294
V179  V   0.96675  0.17088  0.22706
V180  V   0.96675  0.22706  0.17088
V181  V   0.96675  0.52294  0.57912
V182  V   0.96675  0.57912  0.52294
V183  V   0.96675  0.67088  0.72706
V184  V   0.96675  0.72706  0.67088
V185  V   0.97706  0.03325  0.92088
V186  V   0.97706  0.21675  0.32912
V187  V   0.97706  0.32912  0.21675
V188  V   0.97706  0.42088  0.53325
V189  V   0.97706  0.53325  0.42088
V190  V   0.97706  0.71675  0.82912
V191  V   0.97706  0.82912  0.71675
V192  V   0.97706  0.92088  0.03325
EC1    EC   0.01263  0.06881  0.12500
EC2    EC   0.01263  0.12500  0.06881
EC3    EC   0.01263  0.12500  0.18119
EC4    EC   0.01263  0.18119  0.12500
EC5    EC   0.01263  0.56881  0.62500
EC6    EC   0.01263  0.62500  0.56881
EC7    EC   0.01263  0.62500  0.68119
EC8    EC   0.01263  0.68119  0.62500
EC9    EC   0.06881  0.01263  0.12500
EC10   EC   0.06881  0.12500  0.01263
EC11   EC   0.06881  0.12500  0.23737
EC12   EC   0.06881  0.23737  0.12500
EC13   EC   0.06881  0.51263  0.62500
EC14   EC   0.06881  0.62500  0.51263
EC15   EC   0.06881  0.62500  0.73737
EC16   EC   0.06881  0.73737  0.62500
EC17   EC   0.12500  0.01263  0.06881
EC18   EC   0.12500  0.01263  0.18119
EC19   EC   0.12500  0.06881  0.01263
EC20   EC   0.12500  0.06881  0.23737
EC21   EC   0.12500  0.18119  0.01263
EC22   EC   0.12500  0.18119  0.23737
EC23   EC   0.12500  0.23737  0.06881
EC24   EC   0.12500  0.23737  0.18119
EC25   EC   0.12500  0.51263  0.56881
EC26   EC   0.12500  0.51263  0.68119
EC27   EC   0.12500  0.56881  0.51263
EC28   EC   0.12500  0.56881  0.73737
EC29   EC   0.12500  0.68119  0.51263
EC30   EC   0.12500  0.68119  0.73737
EC31   EC   0.12500  0.73737  0.56881
EC32   EC   0.12500  0.73737  0.68119
EC33   EC   0.18119  0.01263  0.12500
EC34   EC   0.18119  0.12500  0.01263
EC35   EC   0.18119  0.12500  0.23737
EC36   EC   0.18119  0.23737  0.12500
EC37   EC   0.18119  0.51263  0.62500
EC38   EC   0.18119  0.62500  0.51263
EC39   EC   0.18119  0.62500  0.73737
EC40   EC   0.18119  0.73737  0.62500
EC41   EC   0.23737  0.06881  0.12500
EC42   EC   0.23737  0.12500  0.06881
EC43   EC   0.23737  0.12500  0.18119
EC44   EC   0.23737  0.18119  0.12500
EC45   EC   0.23737  0.56881  0.62500
EC46   EC   0.23737  0.62500  0.56881
EC47   EC   0.23737  0.62500  0.68119
EC48   EC   0.23737  0.68119  0.62500
EC49   EC   0.26263  0.31881  0.87500
EC50   EC   0.26263  0.37500  0.81881
EC51   EC   0.26263  0.37500  0.93119
EC52   EC   0.26263  0.43119  0.87500
EC53   EC   0.26263  0.81881  0.37500
EC54   EC   0.26263  0.87500  0.31881
EC55   EC   0.26263  0.87500  0.43119
EC56   EC   0.26263  0.93119  0.37500
EC57   EC   0.31881  0.26263  0.87500
EC58   EC   0.31881  0.37500  0.76263
EC59   EC   0.31881  0.37500  0.98737
EC60   EC   0.31881  0.48737  0.87500
EC61   EC   0.31881  0.76263  0.37500
EC62   EC   0.31881  0.87500  0.26263
EC63   EC   0.31881  0.87500  0.48737
EC64   EC   0.31881  0.98737  0.37500
EC65   EC   0.37500  0.26263  0.81881
EC66   EC   0.37500  0.26263  0.93119
EC67   EC   0.37500  0.31881  0.76263
EC68   EC   0.37500  0.31881  0.98737
EC69   EC   0.37500  0.43119  0.76263
EC70   EC   0.37500  0.43119  0.98737
EC71   EC   0.37500  0.48737  0.81881
EC72   EC   0.37500  0.48737  0.93119
EC73   EC   0.37500  0.76263  0.31881
EC74   EC   0.37500  0.76263  0.43119
EC75   EC   0.37500  0.81881  0.26263
EC76   EC   0.37500  0.81881  0.48737
EC77   EC   0.37500  0.93119  0.26263
EC78   EC   0.37500  0.93119  0.48737
EC79   EC   0.37500  0.98737  0.31881
EC80   EC   0.37500  0.98737  0.43119
EC81   EC   0.43119  0.26263  0.87500
EC82   EC   0.43119  0.37500  0.76263
EC83   EC   0.43119  0.37500  0.98737
EC84   EC   0.43119  0.48737  0.87500
EC85   EC   0.43119  0.76263  0.37500
EC86   EC   0.43119  0.87500  0.26263
EC87   EC   0.43119  0.87500  0.48737
EC88   EC   0.43119  0.98737  0.37500
EC89   EC   0.48737  0.31881  0.87500
EC90   EC   0.48737  0.37500  0.81881
EC91   EC   0.48737  0.37500  0.93119
EC92   EC   0.48737  0.43119  0.87500
EC93   EC   0.48737  0.81881  0.37500
EC94   EC   0.48737  0.87500  0.31881
EC95   EC   0.48737  0.87500  0.43119
EC96   EC   0.48737  0.93119  0.37500
EC97   EC   0.51263  0.06881  0.62500
EC98   EC   0.51263  0.12500  0.56881
EC99   EC   0.51263  0.12500  0.68119
EC100  EC   0.51263  0.18119  0.62500
EC101  EC   0.51263  0.56881  0.12500
EC102  EC   0.51263  0.62500  0.06881
EC103  EC   0.51263  0.62500  0.18119
EC104  EC   0.51263  0.68119  0.12500
EC105  EC   0.56881  0.01263  0.62500
EC106  EC   0.56881  0.12500  0.51263
EC107  EC   0.56881  0.12500  0.73737
EC108  EC   0.56881  0.23737  0.62500
EC109  EC   0.56881  0.51263  0.12500
EC110  EC   0.56881  0.62500  0.01263
EC111  EC   0.56881  0.62500  0.23737
EC112  EC   0.56881  0.73737  0.12500
EC113  EC   0.62500  0.01263  0.56881
EC114  EC   0.62500  0.01263  0.68119
EC115  EC   0.62500  0.06881  0.51263
EC116  EC   0.62500  0.06881  0.73737
EC117  EC   0.62500  0.18119  0.51263
EC118  EC   0.62500  0.18119  0.73737
EC119  EC   0.62500  0.23737  0.56881
EC120  EC   0.62500  0.23737  0.68119
EC121  EC   0.62500  0.51263  0.06881
EC122  EC   0.62500  0.51263  0.18119
EC123  EC   0.62500  0.56881  0.01263
EC124  EC   0.62500  0.56881  0.23737
EC125  EC   0.62500  0.68119  0.01263
EC126  EC   0.62500  0.68119  0.23737
EC127  EC   0.62500  0.73737  0.06881
EC128  EC   0.62500  0.73737  0.18119
EC129  EC   0.68119  0.01263  0.62500
EC130  EC   0.68119  0.12500  0.51263
EC131  EC   0.68119  0.12500  0.73737
EC132  EC   0.68119  0.23737  0.62500
EC133  EC   0.68119  0.51263  0.12500
EC134  EC   0.68119  0.62500  0.01263
EC135  EC   0.68119  0.62500  0.23737
EC136  EC   0.68119  0.73737  0.12500
EC137  EC   0.73737  0.06881  0.62500
EC138  EC   0.73737  0.12500  0.56881
EC139  EC   0.73737  0.12500  0.68119
EC140  EC   0.73737  0.18119  0.62500
EC141  EC   0.73737  0.56881  0.12500
EC142  EC   0.73737  0.62500  0.06881
EC143  EC   0.73737  0.62500  0.18119
EC144  EC   0.73737  0.68119  0.12500
EC145  EC   0.76263  0.31881  0.37500
EC146  EC   0.76263  0.37500  0.31881
EC147  EC   0.76263  0.37500  0.43119
EC148  EC   0.76263  0.43119  0.37500
EC149  EC   0.76263  0.81881  0.87500
EC150  EC   0.76263  0.87500  0.81881
EC151  EC   0.76263  0.87500  0.93119
EC152  EC   0.76263  0.93119  0.87500
EC153  EC   0.81881  0.26263  0.37500
EC154  EC   0.81881  0.37500  0.26263
EC155  EC   0.81881  0.37500  0.48737
EC156  EC   0.81881  0.48737  0.37500
EC157  EC   0.81881  0.76263  0.87500
EC158  EC   0.81881  0.87500  0.76263
EC159  EC   0.81881  0.87500  0.98737
EC160  EC   0.81881  0.98737  0.87500
EC161  EC   0.87500  0.26263  0.31881
EC162  EC   0.87500  0.26263  0.43119
EC163  EC   0.87500  0.31881  0.26263
EC164  EC   0.87500  0.31881  0.48737
EC165  EC   0.87500  0.43119  0.26263
EC166  EC   0.87500  0.43119  0.48737
EC167  EC   0.87500  0.48737  0.31881
EC168  EC   0.87500  0.48737  0.43119
EC169  EC   0.87500  0.76263  0.81881
EC170  EC   0.87500  0.76263  0.93119
EC171  EC   0.87500  0.81881  0.76263
EC172  EC   0.87500  0.81881  0.98737
EC173  EC   0.87500  0.93119  0.76263
EC174  EC   0.87500  0.93119  0.98737
EC175  EC   0.87500  0.98737  0.81881
EC176  EC   0.87500  0.98737  0.93119
EC177  EC   0.93119  0.26263  0.37500
EC178  EC   0.93119  0.37500  0.26263
EC179  EC   0.93119  0.37500  0.48737
EC180  EC   0.93119  0.48737  0.37500
EC181  EC   0.93119  0.76263  0.87500
EC182  EC   0.93119  0.87500  0.76263
EC183  EC   0.93119  0.87500  0.98737
EC184  EC   0.93119  0.98737  0.87500
EC185  EC   0.98737  0.31881  0.37500
EC186  EC   0.98737  0.37500  0.31881
EC187  EC   0.98737  0.37500  0.43119
EC188  EC   0.98737  0.43119  0.37500
EC189  EC   0.98737  0.81881  0.87500
EC190  EC   0.98737  0.87500  0.81881
EC191  EC   0.98737  0.87500  0.93119
EC192  EC   0.98737  0.93119  0.87500
E1    E   0.00000  0.05619  0.94381
E2    E   0.00000  0.05619  0.94381
E3    E   0.00000  0.19381  0.30619
E4    E   0.00000  0.19381  0.30619
E5    E   0.00000  0.30619  0.19381
E6    E   0.00000  0.30619  0.19381
E7    E   0.00000  0.44381  0.55619
E8    E   0.00000  0.44381  0.55619
E9    E   0.00000  0.55619  0.44381
E10   E   0.00000  0.55619  0.44381
E11   E   0.00000  0.69381  0.80619
E12   E   0.00000  0.80619  0.69381
E13   E   0.00000  0.94381  0.05619
E14   E   0.00000  0.94381  0.05619
E15   E   0.00515  0.00515  0.92088
E16   E   0.00515  0.24485  0.32912
E17   E   0.00515  0.32912  0.24485
E18   E   0.00515  0.42088  0.50515
E19   E   0.00515  0.50515  0.42088
E20   E   0.00515  0.74485  0.82912
E21   E   0.00515  0.82912  0.74485
E22   E   0.00515  0.92088  0.00515
E23   E   0.00515  0.00515  0.92088
E24   E   0.00515  0.24485  0.32912
E25   E   0.00515  0.32912  0.24485
E26   E   0.00515  0.42088  0.50515
E27   E   0.00515  0.50515  0.42088
E28   E   0.00515  0.74485  0.82912
E29   E   0.00515  0.82912  0.74485
E30   E   0.00515  0.92088  0.00515
E31   E   0.01031  0.29588  0.35206
E32   E   0.01031  0.35206  0.29588
E33   E   0.01031  0.39794  0.45412
E34   E   0.01031  0.45412  0.39794
E35   E   0.01031  0.79588  0.85206
E36   E   0.01031  0.85206  0.79588
E37   E   0.01031  0.89794  0.95412
E38   E   0.01031  0.95412  0.89794
E39   E   0.01263  0.09691  0.09691
E40   E   0.01263  0.09691  0.15309
E41   E   0.01263  0.15309  0.09691
E42   E   0.01263  0.15309  0.15309
E43   E   0.01263  0.59691  0.59691
E44   E   0.01263  0.59691  0.65309
E45   E   0.01263  0.65309  0.59691
E46   E   0.01263  0.65309  0.65309
E47   E   0.03325  0.30103  0.30103
E48   E   0.03325  0.44897  0.44897
E49   E   0.03325  0.80103  0.80103
E50   E   0.03325  0.94897  0.94897
E51   E   0.04072  0.04072  0.12500
E52   E   0.04072  0.12500  0.04072
E53   E   0.04072  0.12500  0.20928
E54   E   0.04072  0.20928  0.12500
E55   E   0.04072  0.54072  0.62500
E56   E   0.04072  0.62500  0.54072
E57   E   0.04072  0.62500  0.70928
E58   E   0.04072  0.70928  0.62500
E59   E   0.04588  0.10206  0.98969
E60   E   0.04588  0.14794  0.26031
E61   E   0.04588  0.26031  0.14794
E62   E   0.04588  0.48969  0.60206
E63   E   0.04588  0.60206  0.48969
E64   E   0.04588  0.64794  0.76031
E65   E   0.04588  0.76031  0.64794
E66   E   0.04588  0.98969  0.10206
E67   E   0.05103  0.05103  0.96675
E68   E   0.05103  0.19897  0.28325
E69   E   0.05103  0.28325  0.19897
E70   E   0.05103  0.46675  0.55103
E71   E   0.05103  0.55103  0.46675
E72   E   0.05103  0.69897  0.78325
E73   E   0.05103  0.78325  0.69897
E74   E   0.05103  0.96675  0.05103
E75   E   0.05103  0.05103  0.96675
E76   E   0.05103  0.19897  0.28325
E77   E   0.05103  0.28325  0.19897
E78   E   0.05103  0.46675  0.55103
E79   E   0.05103  0.55103  0.46675
E80   E   0.05103  0.69897  0.78325
E81   E   0.05103  0.78325  0.69897
E82   E   0.05103  0.96675  0.05103
E83   E   0.05619  0.00000  0.94381
E84   E   0.05619  0.25000  0.30619
E85   E   0.05619  0.30619  0.25000
E86   E   0.05619  0.44381  0.50000
E87   E   0.05619  0.50000  0.44381
E88   E   0.05619  0.75000  0.80619
E89   E   0.05619  0.80619  0.75000
E90   E   0.05619  0.94381  0.00000
E91   E   0.05619  0.00000  0.94381
E92   E   0.05619  0.25000  0.30619
E93   E   0.05619  0.30619  0.25000
E94   E   0.05619  0.44381  0.50000
E95   E   0.05619  0.50000  0.44381
E96   E   0.05619  0.75000  0.80619
E97   E   0.05619  0.80619  0.75000
E98   E   0.05619  0.94381  0.00000
E99   E   0.07912  0.25515  0.25515
E100  E   0.07912  0.49485  0.49485
E101  E   0.07912  0.75515  0.75515
E102  E   0.07912  0.99485  0.99485
E103  E   0.09691  0.01263  0.09691
E104  E   0.09691  0.01263  0.15309
E105  E   0.09691  0.09691  0.01263
E106  E   0.09691  0.09691  0.23737
E107  E   0.09691  0.15309  0.01263
E108  E   0.09691  0.15309  0.23737
E109  E   0.09691  0.23737  0.09691
E110  E   0.09691  0.23737  0.15309
E111  E   0.09691  0.51263  0.59691
E112  E   0.09691  0.51263  0.65309
E113  E   0.09691  0.59691  0.51263
E114  E   0.09691  0.59691  0.73737
E115  E   0.09691  0.65309  0.51263
E116  E   0.09691  0.65309  0.73737
E117  E   0.09691  0.73737  0.59691
E118  E   0.09691  0.73737  0.65309
E119  E   0.10206  0.04588  0.98969
E120  E   0.10206  0.20412  0.26031
E121  E   0.10206  0.26031  0.20412
E122  E   0.10206  0.48969  0.54588
E123  E   0.10206  0.54588  0.48969
E124  E   0.10206  0.70412  0.76031
E125  E   0.10206  0.76031  0.70412
E126  E   0.10206  0.98969  0.04588
E127  E   0.12500  0.04072  0.04072
E128  E   0.12500  0.04072  0.20928
E129  E   0.12500  0.20928  0.04072
E130  E   0.12500  0.20928  0.20928
E131  E   0.12500  0.54072  0.54072
E132  E   0.12500  0.54072  0.70928
E133  E   0.12500  0.70928  0.54072
E134  E   0.12500  0.70928  0.70928
E135  E   0.14794  0.04588  0.26031
E136  E   0.14794  0.20412  0.98969
E137  E   0.14794  0.26031  0.04588
E138  E   0.14794  0.48969  0.70412
E139  E   0.14794  0.54588  0.76031
E140  E   0.14794  0.70412  0.48969
E141  E   0.14794  0.76031  0.54588
E142  E   0.14794  0.98969  0.20412
E143  E   0.15309  0.01263  0.09691
E144  E   0.15309  0.01263  0.15309
E145  E   0.15309  0.09691  0.01263
E146  E   0.15309  0.09691  0.23737
E147  E   0.15309  0.15309  0.01263
E148  E   0.15309  0.15309  0.23737
E149  E   0.15309  0.23737  0.09691
E150  E   0.15309  0.23737  0.15309
E151  E   0.15309  0.51263  0.59691
E152  E   0.15309  0.51263  0.65309
E153  E   0.15309  0.59691  0.51263
E154  E   0.15309  0.59691  0.73737
E155  E   0.15309  0.65309  0.51263
E156  E   0.15309  0.65309  0.73737
E157  E   0.15309  0.73737  0.59691
E158  E   0.15309  0.73737  0.65309
E159  E   0.17088  0.25515  0.99485
E160  E   0.17088  0.49485  0.75515
E161  E   0.17088  0.75515  0.49485
E162  E   0.17088  0.99485  0.25515
E163  E   0.19381  0.00000  0.30619
E164  E   0.19381  0.25000  0.94381
E165  E   0.19381  0.30619  0.00000
E166  E   0.19381  0.44381  0.75000
E167  E   0.19381  0.50000  0.80619
E168  E   0.19381  0.75000  0.44381
E169  E   0.19381  0.80619  0.50000
E170  E   0.19381  0.94381  0.25000
E171  E   0.19381  0.00000  0.30619
E172  E   0.19381  0.25000  0.94381
E173  E   0.19381  0.30619  0.00000
E174  E   0.19381  0.44381  0.75000
E175  E   0.19381  0.50000  0.80619
E176  E   0.19381  0.75000  0.44381
E177  E   0.19381  0.80619  0.50000
E178  E   0.19381  0.94381  0.25000
E179  E   0.19897  0.05103  0.28325
E180  E   0.19897  0.05103  0.28325
E181  E   0.19897  0.19897  0.96675
E182  E   0.19897  0.28325  0.05103
E183  E   0.19897  0.28325  0.05103
E184  E   0.19897  0.46675  0.69897
E185  E   0.19897  0.55103  0.78325
E186  E   0.19897  0.69897  0.46675
E187  E   0.19897  0.78325  0.55103
E188  E   0.19897  0.96675  0.19897
E189  E   0.20412  0.10206  0.26031
E190  E   0.20412  0.14794  0.98969
E191  E   0.20412  0.26031  0.10206
E192  E   0.20412  0.48969  0.64794
E193  E   0.20412  0.60206  0.76031
E194  E   0.20412  0.64794  0.48969
E195  E   0.20412  0.76031  0.60206
E196  E   0.20412  0.98969  0.14794
E197  E   0.20928  0.04072  0.12500
E198  E   0.20928  0.12500  0.04072
E199  E   0.20928  0.12500  0.20928
E200  E   0.20928  0.20928  0.12500
E201  E   0.20928  0.54072  0.62500
E202  E   0.20928  0.62500  0.54072
E203  E   0.20928  0.62500  0.70928
E204  E   0.20928  0.70928  0.62500
E205  E   0.21675  0.30103  0.94897
E206  E   0.21675  0.44897  0.80103
E207  E   0.21675  0.80103  0.44897
E208  E   0.21675  0.94897  0.30103
E209  E   0.23737  0.09691  0.09691
E210  E   0.23737  0.09691  0.15309
E211  E   0.23737  0.15309  0.09691
E212  E   0.23737  0.15309  0.15309
E213  E   0.23737  0.59691  0.59691
E214  E   0.23737  0.59691  0.65309
E215  E   0.23737  0.65309  0.59691
E216  E   0.23737  0.65309  0.65309
E217  E   0.23969  0.29588  0.89794
E218  E   0.23969  0.35206  0.95412
E219  E   0.23969  0.39794  0.79588
E220  E   0.23969  0.45412  0.85206
E221  E   0.23969  0.79588  0.39794
E222  E   0.23969  0.85206  0.45412
E223  E   0.23969  0.89794  0.29588
E224  E   0.23969  0.95412  0.35206
E225  E   0.24485  0.00515  0.32912
E226  E   0.24485  0.00515  0.32912
E227  E   0.24485  0.24485  0.92088
E228  E   0.24485  0.32912  0.00515
E229  E   0.24485  0.32912  0.00515
E230  E   0.24485  0.42088  0.74485
E231  E   0.24485  0.50515  0.82912
E232  E   0.24485  0.74485  0.42088
E233  E   0.24485  0.82912  0.50515
E234  E   0.24485  0.92088  0.24485
E235  E   0.25000  0.05619  0.30619
E236  E   0.25000  0.05619  0.30619
E237  E   0.25000  0.19381  0.94381
E238  E   0.25000  0.19381  0.94381
E239  E   0.25000  0.30619  0.05619
E240  E   0.25000  0.30619  0.05619
E241  E   0.25000  0.44381  0.69381
E242  E   0.25000  0.44381  0.69381
E243  E   0.25000  0.55619  0.80619
E244  E   0.25000  0.69381  0.44381
E245  E   0.25000  0.69381  0.44381
E246  E   0.25000  0.80619  0.55619
E247  E   0.25000  0.94381  0.19381
E248  E   0.25000  0.94381  0.19381
E249  E   0.25515  0.07912  0.25515
E250  E   0.25515  0.17088  0.99485
E251  E   0.25515  0.25515  0.07912
E252  E   0.25515  0.49485  0.67088
E253  E   0.25515  0.57912  0.75515
E254  E   0.25515  0.67088  0.49485
E255  E   0.25515  0.75515  0.57912
E256  E   0.25515  0.99485  0.17088
E257  E   0.26031  0.04588  0.14794
E258  E   0.26031  0.10206  0.20412
E259  E   0.26031  0.14794  0.04588
E260  E   0.26031  0.20412  0.10206
E261  E   0.26031  0.54588  0.64794
E262  E   0.26031  0.60206  0.70412
E263  E   0.26031  0.64794  0.54588
E264  E   0.26031  0.70412  0.60206
E265  E   0.26263  0.34691  0.84691
E266  E   0.26263  0.34691  0.90309
E267  E   0.26263  0.40309  0.84691
E268  E   0.26263  0.40309  0.90309
E269  E   0.26263  0.84691  0.34691
E270  E   0.26263  0.84691  0.40309
E271  E   0.26263  0.90309  0.34691
E272  E   0.26263  0.90309  0.40309
E273  E   0.28325  0.05103  0.19897
E274  E   0.28325  0.05103  0.19897
E275  E   0.28325  0.19897  0.05103
E276  E   0.28325  0.19897  0.05103
E277  E   0.28325  0.55103  0.69897
E278  E   0.28325  0.69897  0.55103
E279  E   0.29072  0.29072  0.87500
E280  E   0.29072  0.37500  0.79072
E281  E   0.29072  0.37500  0.95928
E282  E   0.29072  0.45928  0.87500
E283  E   0.29072  0.79072  0.37500
E284  E   0.29072  0.87500  0.29072
E285  E   0.29072  0.87500  0.45928
E286  E   0.29072  0.95928  0.37500
E287  E   0.29588  0.01031  0.35206
E288  E   0.29588  0.23969  0.89794
E289  E   0.29588  0.35206  0.01031
E290  E   0.29588  0.39794  0.73969
E291  E   0.29588  0.51031  0.85206
E292  E   0.29588  0.73969  0.39794
E293  E   0.29588  0.85206  0.51031
E294  E   0.29588  0.89794  0.23969
E295  E   0.30103  0.03325  0.30103
E296  E   0.30103  0.21675  0.94897
E297  E   0.30103  0.30103  0.03325
E298  E   0.30103  0.44897  0.71675
E299  E   0.30103  0.53325  0.80103
E300  E   0.30103  0.71675  0.44897
E301  E   0.30103  0.80103  0.53325
E302  E   0.30103  0.94897  0.21675
E303  E   0.30619  0.00000  0.19381
E304  E   0.30619  0.05619  0.25000
E305  E   0.30619  0.19381  0.00000
E306  E   0.30619  0.25000  0.05619
E307  E   0.30619  0.50000  0.69381
E308  E   0.30619  0.55619  0.75000
E309  E   0.30619  0.69381  0.50000
E310  E   0.30619  0.75000  0.55619
E311  E   0.30619  0.00000  0.19381
E312  E   0.30619  0.05619  0.25000
E313  E   0.30619  0.19381  0.00000
E314  E   0.30619  0.25000  0.05619
E315  E   0.30619  0.50000  0.69381
E316  E   0.30619  0.55619  0.75000
E317  E   0.30619  0.69381  0.50000
E318  E   0.30619  0.75000  0.55619
E319  E   0.32912  0.00515  0.24485
E320  E   0.32912  0.00515  0.24485
E321  E   0.32912  0.24485  0.00515
E322  E   0.32912  0.24485  0.00515
E323  E   0.32912  0.50515  0.74485
E324  E   0.32912  0.74485  0.50515
E325  E   0.34691  0.26263  0.84691
E326  E   0.34691  0.26263  0.90309
E327  E   0.34691  0.34691  0.76263
E328  E   0.34691  0.34691  0.98737
E329  E   0.34691  0.40309  0.76263
E330  E   0.34691  0.40309  0.98737
E331  E   0.34691  0.48737  0.84691
E332  E   0.34691  0.48737  0.90309
E333  E   0.34691  0.76263  0.34691
E334  E   0.34691  0.76263  0.40309
E335  E   0.34691  0.84691  0.26263
E336  E   0.34691  0.84691  0.48737
E337  E   0.34691  0.90309  0.26263
E338  E   0.34691  0.90309  0.48737
E339  E   0.34691  0.98737  0.34691
E340  E   0.34691  0.98737  0.40309
E341  E   0.35206  0.01031  0.29588
E342  E   0.35206  0.23969  0.95412
E343  E   0.35206  0.29588  0.01031
E344  E   0.35206  0.45412  0.73969
E345  E   0.35206  0.51031  0.79588
E346  E   0.35206  0.73969  0.45412
E347  E   0.35206  0.79588  0.51031
E348  E   0.35206  0.95412  0.23969
E349  E   0.37500  0.29072  0.79072
E350  E   0.37500  0.29072  0.95928
E351  E   0.37500  0.45928  0.79072
E352  E   0.37500  0.45928  0.95928
E353  E   0.37500  0.79072  0.29072
E354  E   0.37500  0.79072  0.45928
E355  E   0.37500  0.95928  0.29072
E356  E   0.37500  0.95928  0.45928
E357  E   0.39794  0.01031  0.45412
E358  E   0.39794  0.23969  0.79588
E359  E   0.39794  0.29588  0.73969
E360  E   0.39794  0.45412  0.01031
E361  E   0.39794  0.51031  0.95412
E362  E   0.39794  0.73969  0.29588
E363  E   0.39794  0.79588  0.23969
E364  E   0.39794  0.95412  0.51031
E365  E   0.40309  0.26263  0.84691
E366  E   0.40309  0.26263  0.90309
E367  E   0.40309  0.34691  0.76263
E368  E   0.40309  0.34691  0.98737
E369  E   0.40309  0.40309  0.76263
E370  E   0.40309  0.40309  0.98737
E371  E   0.40309  0.48737  0.84691
E372  E   0.40309  0.48737  0.90309
E373  E   0.40309  0.76263  0.34691
E374  E   0.40309  0.76263  0.40309
E375  E   0.40309  0.84691  0.26263
E376  E   0.40309  0.84691  0.48737
E377  E   0.40309  0.90309  0.26263
E378  E   0.40309  0.90309  0.48737
E379  E   0.40309  0.98737  0.34691
E380  E   0.40309  0.98737  0.40309
E381  E   0.42088  0.00515  0.50515
E382  E   0.42088  0.00515  0.50515
E383  E   0.42088  0.24485  0.74485
E384  E   0.42088  0.50515  0.00515
E385  E   0.42088  0.50515  0.00515
E386  E   0.42088  0.74485  0.24485
E387  E   0.44381  0.00000  0.55619
E388  E   0.44381  0.05619  0.50000
E389  E   0.44381  0.19381  0.75000
E390  E   0.44381  0.25000  0.69381
E391  E   0.44381  0.50000  0.05619
E392  E   0.44381  0.55619  0.00000
E393  E   0.44381  0.69381  0.25000
E394  E   0.44381  0.75000  0.19381
E395  E   0.44381  0.00000  0.55619
E396  E   0.44381  0.05619  0.50000
E397  E   0.44381  0.19381  0.75000
E398  E   0.44381  0.25000  0.69381
E399  E   0.44381  0.50000  0.05619
E400  E   0.44381  0.55619  0.00000
E401  E   0.44381  0.69381  0.25000
E402  E   0.44381  0.75000  0.19381
E403  E   0.44897  0.03325  0.44897
E404  E   0.44897  0.21675  0.80103
E405  E   0.44897  0.30103  0.71675
E406  E   0.44897  0.44897  0.03325
E407  E   0.44897  0.53325  0.94897
E408  E   0.44897  0.71675  0.30103
E409  E   0.44897  0.80103  0.21675
E410  E   0.44897  0.94897  0.53325
E411  E   0.45412  0.01031  0.39794
E412  E   0.45412  0.23969  0.85206
E413  E   0.45412  0.35206  0.73969
E414  E   0.45412  0.39794  0.01031
E415  E   0.45412  0.51031  0.89794
E416  E   0.45412  0.73969  0.35206
E417  E   0.45412  0.85206  0.23969
E418  E   0.45412  0.89794  0.51031
E419  E   0.45928  0.29072  0.87500
E420  E   0.45928  0.37500  0.79072
E421  E   0.45928  0.37500  0.95928
E422  E   0.45928  0.45928  0.87500
E423  E   0.45928  0.79072  0.37500
E424  E   0.45928  0.87500  0.29072
E425  E   0.45928  0.87500  0.45928
E426  E   0.45928  0.95928  0.37500
E427  E   0.46675  0.05103  0.55103
E428  E   0.46675  0.05103  0.55103
E429  E   0.46675  0.19897  0.69897
E430  E   0.46675  0.55103  0.05103
E431  E   0.46675  0.55103  0.05103
E432  E   0.46675  0.69897  0.19897
E433  E   0.48737  0.34691  0.84691
E434  E   0.48737  0.34691  0.90309
E435  E   0.48737  0.40309  0.84691
E436  E   0.48737  0.40309  0.90309
E437  E   0.48737  0.84691  0.34691
E438  E   0.48737  0.84691  0.40309
E439  E   0.48737  0.90309  0.34691
E440  E   0.48737  0.90309  0.40309
E441  E   0.48969  0.04588  0.60206
E442  E   0.48969  0.10206  0.54588
E443  E   0.48969  0.14794  0.70412
E444  E   0.48969  0.20412  0.64794
E445  E   0.48969  0.54588  0.10206
E446  E   0.48969  0.60206  0.04588
E447  E   0.48969  0.64794  0.20412
E448  E   0.48969  0.70412  0.14794
E449  E   0.49485  0.07912  0.49485
E450  E   0.49485  0.17088  0.75515
E451  E   0.49485  0.25515  0.67088
E452  E   0.49485  0.49485  0.07912
E453  E   0.49485  0.57912  0.99485
E454  E   0.49485  0.67088  0.25515
E455  E   0.49485  0.75515  0.17088
E456  E   0.49485  0.99485  0.57912
E457  E   0.50000  0.05619  0.44381
E458  E   0.50000  0.05619  0.44381
E459  E   0.50000  0.19381  0.80619
E460  E   0.50000  0.19381  0.80619
E461  E   0.50000  0.30619  0.69381
E462  E   0.50000  0.30619  0.69381
E463  E   0.50000  0.44381  0.05619
E464  E   0.50000  0.44381  0.05619
E465  E   0.50000  0.55619  0.94381
E466  E   0.50000  0.69381  0.30619
E467  E   0.50000  0.69381  0.30619
E468  E   0.50000  0.80619  0.19381
E469  E   0.50000  0.80619  0.19381
E470  E   0.50000  0.94381  0.55619
E471  E   0.50515  0.00515  0.42088
E472  E   0.50515  0.00515  0.42088
E473  E   0.50515  0.24485  0.82912
E474  E   0.50515  0.32912  0.74485
E475  E   0.50515  0.42088  0.00515
E476  E   0.50515  0.42088  0.00515
E477  E   0.50515  0.50515  0.92088
E478  E   0.50515  0.74485  0.32912
E479  E   0.50515  0.82912  0.24485
E480  E   0.50515  0.92088  0.50515
E481  E   0.51031  0.29588  0.85206
E482  E   0.51031  0.35206  0.79588
E483  E   0.51031  0.39794  0.95412
E484  E   0.51031  0.45412  0.89794
E485  E   0.51031  0.79588  0.35206
E486  E   0.51031  0.85206  0.29588
E487  E   0.51031  0.89794  0.45412
E488  E   0.51031  0.95412  0.39794
E489  E   0.51263  0.09691  0.59691
E490  E   0.51263  0.09691  0.65309
E491  E   0.51263  0.15309  0.59691
E492  E   0.51263  0.15309  0.65309
E493  E   0.51263  0.59691  0.09691
E494  E   0.51263  0.59691  0.15309
E495  E   0.51263  0.65309  0.09691
E496  E   0.51263  0.65309  0.15309
E497  E   0.53325  0.30103  0.80103
E498  E   0.53325  0.44897  0.94897
E499  E   0.53325  0.80103  0.30103
E500  E   0.53325  0.94897  0.44897
E501  E   0.54072  0.04072  0.62500
E502  E   0.54072  0.12500  0.54072
E503  E   0.54072  0.12500  0.70928
E504  E   0.54072  0.20928  0.62500
E505  E   0.54072  0.54072  0.12500
E506  E   0.54072  0.62500  0.04072
E507  E   0.54072  0.62500  0.20928
E508  E   0.54072  0.70928  0.12500
E509  E   0.54588  0.10206  0.48969
E510  E   0.54588  0.14794  0.76031
E511  E   0.54588  0.26031  0.64794
E512  E   0.54588  0.48969  0.10206
E513  E   0.54588  0.60206  0.98969
E514  E   0.54588  0.64794  0.26031
E515  E   0.54588  0.76031  0.14794
E516  E   0.54588  0.98969  0.60206
E517  E   0.55103  0.05103  0.46675
E518  E   0.55103  0.05103  0.46675
E519  E   0.55103  0.19897  0.78325
E520  E   0.55103  0.28325  0.69897
E521  E   0.55103  0.46675  0.05103
E522  E   0.55103  0.46675  0.05103
E523  E   0.55103  0.55103  0.96675
E524  E   0.55103  0.69897  0.28325
E525  E   0.55103  0.78325  0.19897
E526  E   0.55103  0.96675  0.55103
E527  E   0.55619  0.00000  0.44381
E528  E   0.55619  0.00000  0.44381
E529  E   0.55619  0.25000  0.80619
E530  E   0.55619  0.30619  0.75000
E531  E   0.55619  0.30619  0.75000
E532  E   0.55619  0.44381  0.00000
E533  E   0.55619  0.44381  0.00000
E534  E   0.55619  0.50000  0.94381
E535  E   0.55619  0.75000  0.30619
E536  E   0.55619  0.75000  0.30619
E537  E   0.55619  0.80619  0.25000
E538  E   0.55619  0.94381  0.50000
E539  E   0.57912  0.25515  0.75515
E540  E   0.57912  0.49485  0.99485
E541  E   0.57912  0.75515  0.25515
E542  E   0.57912  0.99485  0.49485
E543  E   0.59691  0.01263  0.59691
E544  E   0.59691  0.01263  0.65309
E545  E   0.59691  0.09691  0.51263
E546  E   0.59691  0.09691  0.73737
E547  E   0.59691  0.15309  0.51263
E548  E   0.59691  0.15309  0.73737
E549  E   0.59691  0.23737  0.59691
E550  E   0.59691  0.23737  0.65309
E551  E   0.59691  0.51263  0.09691
E552  E   0.59691  0.51263  0.15309
E553  E   0.59691  0.59691  0.01263
E554  E   0.59691  0.59691  0.23737
E555  E   0.59691  0.65309  0.01263
E556  E   0.59691  0.65309  0.23737
E557  E   0.59691  0.73737  0.09691
E558  E   0.59691  0.73737  0.15309
E559  E   0.60206  0.04588  0.48969
E560  E   0.60206  0.20412  0.76031
E561  E   0.60206  0.26031  0.70412
E562  E   0.60206  0.48969  0.04588
E563  E   0.60206  0.54588  0.98969
E564  E   0.60206  0.70412  0.26031
E565  E   0.60206  0.76031  0.20412
E566  E   0.60206  0.98969  0.54588
E567  E   0.62500  0.04072  0.54072
E568  E   0.62500  0.04072  0.70928
E569  E   0.62500  0.20928  0.54072
E570  E   0.62500  0.20928  0.70928
E571  E   0.62500  0.54072  0.04072
E572  E   0.62500  0.54072  0.20928
E573  E   0.62500  0.70928  0.04072
E574  E   0.62500  0.70928  0.20928
E575  E   0.64794  0.04588  0.76031
E576  E   0.64794  0.20412  0.48969
E577  E   0.64794  0.26031  0.54588
E578  E   0.64794  0.48969  0.20412
E579  E   0.64794  0.54588  0.26031
E580  E   0.64794  0.70412  0.98969
E581  E   0.64794  0.76031  0.04588
E582  E   0.64794  0.98969  0.70412
E583  E   0.65309  0.01263  0.59691
E584  E   0.65309  0.01263  0.65309
E585  E   0.65309  0.09691  0.51263
E586  E   0.65309  0.09691  0.73737
E587  E   0.65309  0.15309  0.51263
E588  E   0.65309  0.15309  0.73737
E589  E   0.65309  0.23737  0.59691
E590  E   0.65309  0.23737  0.65309
E591  E   0.65309  0.51263  0.09691
E592  E   0.65309  0.51263  0.15309
E593  E   0.65309  0.59691  0.01263
E594  E   0.65309  0.59691  0.23737
E595  E   0.65309  0.65309  0.01263
E596  E   0.65309  0.65309  0.23737
E597  E   0.65309  0.73737  0.09691
E598  E   0.65309  0.73737  0.15309
E599  E   0.67088  0.25515  0.49485
E600  E   0.67088  0.49485  0.25515
E601  E   0.67088  0.75515  0.99485
E602  E   0.67088  0.99485  0.75515
E603  E   0.69381  0.00000  0.80619
E604  E   0.69381  0.25000  0.44381
E605  E   0.69381  0.25000  0.44381
E606  E   0.69381  0.30619  0.50000
E607  E   0.69381  0.30619  0.50000
E608  E   0.69381  0.44381  0.25000
E609  E   0.69381  0.44381  0.25000
E610  E   0.69381  0.50000  0.30619
E611  E   0.69381  0.50000  0.30619
E612  E   0.69381  0.75000  0.94381
E613  E   0.69381  0.80619  0.00000
E614  E   0.69381  0.94381  0.75000
E615  E   0.69897  0.05103  0.78325
E616  E   0.69897  0.05103  0.78325
E617  E   0.69897  0.19897  0.46675
E618  E   0.69897  0.28325  0.55103
E619  E   0.69897  0.46675  0.19897
E620  E   0.69897  0.55103  0.28325
E621  E   0.69897  0.69897  0.96675
E622  E   0.69897  0.78325  0.05103
E623  E   0.69897  0.78325  0.05103
E624  E   0.69897  0.96675  0.69897
E625  E   0.70412  0.10206  0.76031
E626  E   0.70412  0.14794  0.48969
E627  E   0.70412  0.26031  0.60206
E628  E   0.70412  0.48969  0.14794
E629  E   0.70412  0.60206  0.26031
E630  E   0.70412  0.64794  0.98969
E631  E   0.70412  0.76031  0.10206
E632  E   0.70412  0.98969  0.64794
E633  E   0.70928  0.04072  0.62500
E634  E   0.70928  0.12500  0.54072
E635  E   0.70928  0.12500  0.70928
E636  E   0.70928  0.20928  0.62500
E637  E   0.70928  0.54072  0.12500
E638  E   0.70928  0.62500  0.04072
E639  E   0.70928  0.62500  0.20928
E640  E   0.70928  0.70928  0.12500
E641  E   0.71675  0.30103  0.44897
E642  E   0.71675  0.44897  0.30103
E643  E   0.71675  0.80103  0.94897
E644  E   0.71675  0.94897  0.80103
E645  E   0.73737  0.09691  0.59691
E646  E   0.73737  0.09691  0.65309
E647  E   0.73737  0.15309  0.59691
E648  E   0.73737  0.15309  0.65309
E649  E   0.73737  0.59691  0.09691
E650  E   0.73737  0.59691  0.15309
E651  E   0.73737  0.65309  0.09691
E652  E   0.73737  0.65309  0.15309
E653  E   0.73969  0.29588  0.39794
E654  E   0.73969  0.35206  0.45412
E655  E   0.73969  0.39794  0.29588
E656  E   0.73969  0.45412  0.35206
E657  E   0.73969  0.79588  0.89794
E658  E   0.73969  0.85206  0.95412
E659  E   0.73969  0.89794  0.79588
E660  E   0.73969  0.95412  0.85206
E661  E   0.74485  0.00515  0.82912
E662  E   0.74485  0.00515  0.82912
E663  E   0.74485  0.24485  0.42088
E664  E   0.74485  0.32912  0.50515
E665  E   0.74485  0.42088  0.24485
E666  E   0.74485  0.50515  0.32912
E667  E   0.74485  0.74485  0.92088
E668  E   0.74485  0.82912  0.00515
E669  E   0.74485  0.82912  0.00515
E670  E   0.74485  0.92088  0.74485
E671  E   0.75000  0.05619  0.80619
E672  E   0.75000  0.05619  0.80619
E673  E   0.75000  0.19381  0.44381
E674  E   0.75000  0.19381  0.44381
E675  E   0.75000  0.30619  0.55619
E676  E   0.75000  0.30619  0.55619
E677  E   0.75000  0.44381  0.19381
E678  E   0.75000  0.44381  0.19381
E679  E   0.75000  0.55619  0.30619
E680  E   0.75000  0.55619  0.30619
E681  E   0.75000  0.69381  0.94381
E682  E   0.75000  0.80619  0.05619
E683  E   0.75000  0.80619  0.05619
E684  E   0.75000  0.94381  0.69381
E685  E   0.75515  0.07912  0.75515
E686  E   0.75515  0.17088  0.49485
E687  E   0.75515  0.25515  0.57912
E688  E   0.75515  0.49485  0.17088
E689  E   0.75515  0.57912  0.25515
E690  E   0.75515  0.67088  0.99485
E691  E   0.75515  0.75515  0.07912
E692  E   0.75515  0.99485  0.67088
E693  E   0.76031  0.04588  0.64794
E694  E   0.76031  0.10206  0.70412
E695  E   0.76031  0.14794  0.54588
E696  E   0.76031  0.20412  0.60206
E697  E   0.76031  0.54588  0.14794
E698  E   0.76031  0.60206  0.20412
E699  E   0.76031  0.64794  0.04588
E700  E   0.76031  0.70412  0.10206
E701  E   0.76263  0.34691  0.34691
E702  E   0.76263  0.34691  0.40309
E703  E   0.76263  0.40309  0.34691
E704  E   0.76263  0.40309  0.40309
E705  E   0.76263  0.84691  0.84691
E706  E   0.76263  0.84691  0.90309
E707  E   0.76263  0.90309  0.84691
E708  E   0.76263  0.90309  0.90309
E709  E   0.78325  0.05103  0.69897
E710  E   0.78325  0.05103  0.69897
E711  E   0.78325  0.19897  0.55103
E712  E   0.78325  0.55103  0.19897
E713  E   0.78325  0.69897  0.05103
E714  E   0.78325  0.69897  0.05103
E715  E   0.79072  0.29072  0.37500
E716  E   0.79072  0.37500  0.29072
E717  E   0.79072  0.37500  0.45928
E718  E   0.79072  0.45928  0.37500
E719  E   0.79072  0.79072  0.87500
E720  E   0.79072  0.87500  0.79072
E721  E   0.79072  0.87500  0.95928
E722  E   0.79072  0.95928  0.87500
E723  E   0.79588  0.01031  0.85206
E724  E   0.79588  0.23969  0.39794
E725  E   0.79588  0.35206  0.51031
E726  E   0.79588  0.39794  0.23969
E727  E   0.79588  0.51031  0.35206
E728  E   0.79588  0.73969  0.89794
E729  E   0.79588  0.85206  0.01031
E730  E   0.79588  0.89794  0.73969
E731  E   0.80103  0.03325  0.80103
E732  E   0.80103  0.21675  0.44897
E733  E   0.80103  0.30103  0.53325
E734  E   0.80103  0.44897  0.21675
E735  E   0.80103  0.53325  0.30103
E736  E   0.80103  0.71675  0.94897
E737  E   0.80103  0.80103  0.03325
E738  E   0.80103  0.94897  0.71675
E739  E   0.80619  0.00000  0.69381
E740  E   0.80619  0.05619  0.75000
E741  E   0.80619  0.05619  0.75000
E742  E   0.80619  0.19381  0.50000
E743  E   0.80619  0.19381  0.50000
E744  E   0.80619  0.25000  0.55619
E745  E   0.80619  0.50000  0.19381
E746  E   0.80619  0.50000  0.19381
E747  E   0.80619  0.55619  0.25000
E748  E   0.80619  0.69381  0.00000
E749  E   0.80619  0.75000  0.05619
E750  E   0.80619  0.75000  0.05619
E751  E   0.82912  0.00515  0.74485
E752  E   0.82912  0.00515  0.74485
E753  E   0.82912  0.24485  0.50515
E754  E   0.82912  0.50515  0.24485
E755  E   0.82912  0.74485  0.00515
E756  E   0.82912  0.74485  0.00515
E757  E   0.84691  0.26263  0.34691
E758  E   0.84691  0.26263  0.40309
E759  E   0.84691  0.34691  0.26263
E760  E   0.84691  0.34691  0.48737
E761  E   0.84691  0.40309  0.26263
E762  E   0.84691  0.40309  0.48737
E763  E   0.84691  0.48737  0.34691
E764  E   0.84691  0.48737  0.40309
E765  E   0.84691  0.76263  0.84691
E766  E   0.84691  0.76263  0.90309
E767  E   0.84691  0.84691  0.76263
E768  E   0.84691  0.84691  0.98737
E769  E   0.84691  0.90309  0.76263
E770  E   0.84691  0.90309  0.98737
E771  E   0.84691  0.98737  0.84691
E772  E   0.84691  0.98737  0.90309
E773  E   0.85206  0.01031  0.79588
E774  E   0.85206  0.23969  0.45412
E775  E   0.85206  0.29588  0.51031
E776  E   0.85206  0.45412  0.23969
E777  E   0.85206  0.51031  0.29588
E778  E   0.85206  0.73969  0.95412
E779  E   0.85206  0.79588  0.01031
E780  E   0.85206  0.95412  0.73969
E781  E   0.87500  0.29072  0.29072
E782  E   0.87500  0.29072  0.45928
E783  E   0.87500  0.45928  0.29072
E784  E   0.87500  0.45928  0.45928
E785  E   0.87500  0.79072  0.79072
E786  E   0.87500  0.79072  0.95928
E787  E   0.87500  0.95928  0.79072
E788  E   0.87500  0.95928  0.95928
E789  E   0.89794  0.01031  0.95412
E790  E   0.89794  0.23969  0.29588
E791  E   0.89794  0.29588  0.23969
E792  E   0.89794  0.45412  0.51031
E793  E   0.89794  0.51031  0.45412
E794  E   0.89794  0.73969  0.79588
E795  E   0.89794  0.79588  0.73969
E796  E   0.89794  0.95412  0.01031
E797  E   0.90309  0.26263  0.34691
E798  E   0.90309  0.26263  0.40309
E799  E   0.90309  0.34691  0.26263
E800  E   0.90309  0.34691  0.48737
E801  E   0.90309  0.40309  0.26263
E802  E   0.90309  0.40309  0.48737
E803  E   0.90309  0.48737  0.34691
E804  E   0.90309  0.48737  0.40309
E805  E   0.90309  0.76263  0.84691
E806  E   0.90309  0.76263  0.90309
E807  E   0.90309  0.84691  0.76263
E808  E   0.90309  0.84691  0.98737
E809  E   0.90309  0.90309  0.76263
E810  E   0.90309  0.90309  0.98737
E811  E   0.90309  0.98737  0.84691
E812  E   0.90309  0.98737  0.90309
E813  E   0.92088  0.00515  0.00515
E814  E   0.92088  0.00515  0.00515
E815  E   0.92088  0.24485  0.24485
E816  E   0.92088  0.50515  0.50515
E817  E   0.92088  0.74485  0.74485
E818  E   0.94381  0.00000  0.05619
E819  E   0.94381  0.00000  0.05619
E820  E   0.94381  0.05619  0.00000
E821  E   0.94381  0.05619  0.00000
E822  E   0.94381  0.19381  0.25000
E823  E   0.94381  0.19381  0.25000
E824  E   0.94381  0.25000  0.19381
E825  E   0.94381  0.25000  0.19381
E826  E   0.94381  0.50000  0.55619
E827  E   0.94381  0.55619  0.50000
E828  E   0.94381  0.69381  0.75000
E829  E   0.94381  0.75000  0.69381
E830  E   0.94897  0.03325  0.94897
E831  E   0.94897  0.21675  0.30103
E832  E   0.94897  0.30103  0.21675
E833  E   0.94897  0.44897  0.53325
E834  E   0.94897  0.53325  0.44897
E835  E   0.94897  0.71675  0.80103
E836  E   0.94897  0.80103  0.71675
E837  E   0.94897  0.94897  0.03325
E838  E   0.95412  0.01031  0.89794
E839  E   0.95412  0.23969  0.35206
E840  E   0.95412  0.35206  0.23969
E841  E   0.95412  0.39794  0.51031
E842  E   0.95412  0.51031  0.39794
E843  E   0.95412  0.73969  0.85206
E844  E   0.95412  0.85206  0.73969
E845  E   0.95412  0.89794  0.01031
E846  E   0.95928  0.29072  0.37500
E847  E   0.95928  0.37500  0.29072
E848  E   0.95928  0.37500  0.45928
E849  E   0.95928  0.45928  0.37500
E850  E   0.95928  0.79072  0.87500
E851  E   0.95928  0.87500  0.79072
E852  E   0.95928  0.87500  0.95928
E853  E   0.95928  0.95928  0.87500
E854  E   0.96675  0.05103  0.05103
E855  E   0.96675  0.05103  0.05103
E856  E   0.96675  0.19897  0.19897
E857  E   0.96675  0.55103  0.55103
E858  E   0.96675  0.69897  0.69897
E859  E   0.98737  0.34691  0.34691
E860  E   0.98737  0.34691  0.40309
E861  E   0.98737  0.40309  0.34691
E862  E   0.98737  0.40309  0.40309
E863  E   0.98737  0.84691  0.84691
E864  E   0.98737  0.84691  0.90309
E865  E   0.98737  0.90309  0.84691
E866  E   0.98737  0.90309  0.90309
E867  E   0.98969  0.04588  0.10206
E868  E   0.98969  0.10206  0.04588
E869  E   0.98969  0.14794  0.20412
E870  E   0.98969  0.20412  0.14794
E871  E   0.98969  0.54588  0.60206
E872  E   0.98969  0.60206  0.54588
E873  E   0.98969  0.64794  0.70412
E874  E   0.98969  0.70412  0.64794
E875  E   0.99485  0.07912  0.99485
E876  E   0.99485  0.17088  0.25515
E877  E   0.99485  0.25515  0.17088
E878  E   0.99485  0.49485  0.57912
E879  E   0.99485  0.57912  0.49485
E880  E   0.99485  0.67088  0.75515
E881  E   0.99485  0.75515  0.67088
E882  E   0.99485  0.99485  0.07912
loop_
