data_bax_Im-3m  hall_number: 529, V_con: 4, EC_con: 4
_audit_creation_date              2025-03-06
_audit_creation_method            'MOFbuilder_1.0'
_symmetry_space_group_name_H-M    'P1'
_symmetry_Int_Tables_number       1
_symmetry_cell_setting            triclinic
loop_
_symmetry_equiv_pos_as_xyz
  x,y,z
_cell_length_a                    82.9251
_cell_length_b                    82.9251
_cell_length_c                    82.9251
_cell_angle_alpha                 90.0
_cell_angle_beta                  90.0
_cell_angle_gamma                 90.0
loop_
_atom_site_label
_atom_site_type_symbol
_atom_site_fract_x
_atom_site_fract_y
_atom_site_fract_z
V1    V   0.06030  0.14557  0.23084
V2    V   0.06030  0.14557  0.76916
V3    V   0.06030  0.23084  0.14557
V4    V   0.06030  0.23084  0.85443
V5    V   0.06030  0.76916  0.14557
V6    V   0.06030  0.76916  0.85443
V7    V   0.06030  0.85443  0.23084
V8    V   0.06030  0.85443  0.76916
V9    V   0.14557  0.06030  0.23084
V10   V   0.14557  0.06030  0.76916
V11   V   0.14557  0.23084  0.06030
V12   V   0.14557  0.23084  0.93970
V13   V   0.14557  0.76916  0.06030
V14   V   0.14557  0.76916  0.93970
V15   V   0.14557  0.93970  0.23084
V16   V   0.14557  0.93970  0.76916
V17   V   0.23084  0.06030  0.14557
V18   V   0.23084  0.06030  0.85443
V19   V   0.23084  0.14557  0.06030
V20   V   0.23084  0.14557  0.93970
V21   V   0.23084  0.85443  0.06030
V22   V   0.23084  0.85443  0.93970
V23   V   0.23084  0.93970  0.14557
V24   V   0.23084  0.93970  0.85443
V25   V   0.26916  0.35443  0.43970
V26   V   0.26916  0.35443  0.56030
V27   V   0.26916  0.43970  0.35443
V28   V   0.26916  0.43970  0.64557
V29   V   0.26916  0.56030  0.35443
V30   V   0.26916  0.56030  0.64557
V31   V   0.26916  0.64557  0.43970
V32   V   0.26916  0.64557  0.56030
V33   V   0.35443  0.26916  0.43970
V34   V   0.35443  0.26916  0.56030
V35   V   0.35443  0.43970  0.26916
V36   V   0.35443  0.43970  0.73084
V37   V   0.35443  0.56030  0.26916
V38   V   0.35443  0.56030  0.73084
V39   V   0.35443  0.73084  0.43970
V40   V   0.35443  0.73084  0.56030
V41   V   0.43970  0.26916  0.35443
V42   V   0.43970  0.26916  0.64557
V43   V   0.43970  0.35443  0.26916
V44   V   0.43970  0.35443  0.73084
V45   V   0.43970  0.64557  0.26916
V46   V   0.43970  0.64557  0.73084
V47   V   0.43970  0.73084  0.35443
V48   V   0.43970  0.73084  0.64557
V49   V   0.56030  0.26916  0.35443
V50   V   0.56030  0.26916  0.64557
V51   V   0.56030  0.35443  0.26916
V52   V   0.56030  0.35443  0.73084
V53   V   0.56030  0.64557  0.26916
V54   V   0.56030  0.64557  0.73084
V55   V   0.56030  0.73084  0.35443
V56   V   0.56030  0.73084  0.64557
V57   V   0.64557  0.26916  0.43970
V58   V   0.64557  0.26916  0.56030
V59   V   0.64557  0.43970  0.26916
V60   V   0.64557  0.43970  0.73084
V61   V   0.64557  0.56030  0.26916
V62   V   0.64557  0.56030  0.73084
V63   V   0.64557  0.73084  0.43970
V64   V   0.64557  0.73084  0.56030
V65   V   0.73084  0.35443  0.43970
V66   V   0.73084  0.35443  0.56030
V67   V   0.73084  0.43970  0.35443
V68   V   0.73084  0.43970  0.64557
V69   V   0.73084  0.56030  0.35443
V70   V   0.73084  0.56030  0.64557
V71   V   0.73084  0.64557  0.43970
V72   V   0.73084  0.64557  0.56030
V73   V   0.76916  0.06030  0.14557
V74   V   0.76916  0.06030  0.85443
V75   V   0.76916  0.14557  0.06030
V76   V   0.76916  0.14557  0.93970
V77   V   0.76916  0.85443  0.06030
V78   V   0.76916  0.85443  0.93970
V79   V   0.76916  0.93970  0.14557
V80   V   0.76916  0.93970  0.85443
V81   V   0.85443  0.06030  0.23084
V82   V   0.85443  0.06030  0.76916
V83   V   0.85443  0.23084  0.06030
V84   V   0.85443  0.23084  0.93970
V85   V   0.85443  0.76916  0.06030
V86   V   0.85443  0.76916  0.93970
V87   V   0.85443  0.93970  0.23084
V88   V   0.85443  0.93970  0.76916
V89   V   0.93970  0.14557  0.23084
V90   V   0.93970  0.14557  0.76916
V91   V   0.93970  0.23084  0.14557
V92   V   0.93970  0.23084  0.85443
V93   V   0.93970  0.76916  0.14557
V94   V   0.93970  0.76916  0.85443
V95   V   0.93970  0.85443  0.23084
V96   V   0.93970  0.85443  0.76916
EC1    EC   0.12992  0.21519  0.30046
EC2    EC   0.12992  0.21519  0.69954
EC3    EC   0.12992  0.30046  0.21519
EC4    EC   0.12992  0.30046  0.78481
EC5    EC   0.12992  0.69954  0.21519
EC6    EC   0.12992  0.69954  0.78481
EC7    EC   0.12992  0.78481  0.30046
EC8    EC   0.12992  0.78481  0.69954
EC9    EC   0.19954  0.28481  0.37008
EC10   EC   0.19954  0.28481  0.62992
EC11   EC   0.19954  0.37008  0.28481
EC12   EC   0.19954  0.37008  0.71519
EC13   EC   0.19954  0.62992  0.28481
EC14   EC   0.19954  0.62992  0.71519
EC15   EC   0.19954  0.71519  0.37008
EC16   EC   0.19954  0.71519  0.62992
EC17   EC   0.21519  0.12992  0.30046
EC18   EC   0.21519  0.12992  0.69954
EC19   EC   0.21519  0.30046  0.12992
EC20   EC   0.21519  0.30046  0.87008
EC21   EC   0.21519  0.69954  0.12992
EC22   EC   0.21519  0.69954  0.87008
EC23   EC   0.21519  0.87008  0.30046
EC24   EC   0.21519  0.87008  0.69954
EC25   EC   0.28481  0.19954  0.37008
EC26   EC   0.28481  0.19954  0.62992
EC27   EC   0.28481  0.37008  0.19954
EC28   EC   0.28481  0.37008  0.80046
EC29   EC   0.28481  0.62992  0.19954
EC30   EC   0.28481  0.62992  0.80046
EC31   EC   0.28481  0.80046  0.37008
EC32   EC   0.28481  0.80046  0.62992
EC33   EC   0.30046  0.12992  0.21519
EC34   EC   0.30046  0.12992  0.78481
EC35   EC   0.30046  0.21519  0.12992
EC36   EC   0.30046  0.21519  0.87008
EC37   EC   0.30046  0.78481  0.12992
EC38   EC   0.30046  0.78481  0.87008
EC39   EC   0.30046  0.87008  0.21519
EC40   EC   0.30046  0.87008  0.78481
EC41   EC   0.37008  0.19954  0.28481
EC42   EC   0.37008  0.19954  0.71519
EC43   EC   0.37008  0.28481  0.19954
EC44   EC   0.37008  0.28481  0.80046
EC45   EC   0.37008  0.71519  0.19954
EC46   EC   0.37008  0.71519  0.80046
EC47   EC   0.37008  0.80046  0.28481
EC48   EC   0.37008  0.80046  0.71519
EC49   EC   0.62992  0.19954  0.28481
EC50   EC   0.62992  0.19954  0.71519
EC51   EC   0.62992  0.28481  0.19954
EC52   EC   0.62992  0.28481  0.80046
EC53   EC   0.62992  0.71519  0.19954
EC54   EC   0.62992  0.71519  0.80046
EC55   EC   0.62992  0.80046  0.28481
EC56   EC   0.62992  0.80046  0.71519
EC57   EC   0.69954  0.12992  0.21519
EC58   EC   0.69954  0.12992  0.78481
EC59   EC   0.69954  0.21519  0.12992
EC60   EC   0.69954  0.21519  0.87008
EC61   EC   0.69954  0.78481  0.12992
EC62   EC   0.69954  0.78481  0.87008
EC63   EC   0.69954  0.87008  0.21519
EC64   EC   0.69954  0.87008  0.78481
EC65   EC   0.71519  0.19954  0.37008
EC66   EC   0.71519  0.19954  0.62992
EC67   EC   0.71519  0.37008  0.19954
EC68   EC   0.71519  0.37008  0.80046
EC69   EC   0.71519  0.62992  0.19954
EC70   EC   0.71519  0.62992  0.80046
EC71   EC   0.71519  0.80046  0.37008
EC72   EC   0.71519  0.80046  0.62992
EC73   EC   0.78481  0.12992  0.30046
EC74   EC   0.78481  0.12992  0.69954
EC75   EC   0.78481  0.30046  0.12992
EC76   EC   0.78481  0.30046  0.87008
EC77   EC   0.78481  0.69954  0.12992
EC78   EC   0.78481  0.69954  0.87008
EC79   EC   0.78481  0.87008  0.30046
EC80   EC   0.78481  0.87008  0.69954
EC81   EC   0.80046  0.28481  0.37008
EC82   EC   0.80046  0.28481  0.62992
EC83   EC   0.80046  0.37008  0.28481
EC84   EC   0.80046  0.37008  0.71519
EC85   EC   0.80046  0.62992  0.28481
EC86   EC   0.80046  0.62992  0.71519
EC87   EC   0.80046  0.71519  0.37008
EC88   EC   0.80046  0.71519  0.62992
EC89   EC   0.87008  0.21519  0.30046
EC90   EC   0.87008  0.21519  0.69954
EC91   EC   0.87008  0.30046  0.21519
EC92   EC   0.87008  0.30046  0.78481
EC93   EC   0.87008  0.69954  0.21519
EC94   EC   0.87008  0.69954  0.78481
EC95   EC   0.87008  0.78481  0.30046
EC96   EC   0.87008  0.78481  0.69954
E1    E   0.00000  0.14557  0.23084
E2    E   0.00000  0.14557  0.76916
E3    E   0.00000  0.23084  0.14557
E4    E   0.00000  0.23084  0.85443
E5    E   0.00000  0.76916  0.14557
E6    E   0.00000  0.76916  0.85443
E7    E   0.00000  0.85443  0.23084
E8    E   0.00000  0.85443  0.76916
E9    E   0.06030  0.18820  0.18820
E10   E   0.06030  0.18820  0.81180
E11   E   0.06030  0.81180  0.18820
E12   E   0.06030  0.81180  0.81180
E13   E   0.09511  0.18038  0.26565
E14   E   0.09511  0.18038  0.73435
E15   E   0.09511  0.26565  0.18038
E16   E   0.09511  0.26565  0.81962
E17   E   0.09511  0.73435  0.18038
E18   E   0.09511  0.73435  0.81962
E19   E   0.09511  0.81962  0.26565
E20   E   0.09511  0.81962  0.73435
E21   E   0.10293  0.10293  0.23084
E22   E   0.10293  0.10293  0.76916
E23   E   0.10293  0.23084  0.10293
E24   E   0.10293  0.23084  0.89707
E25   E   0.10293  0.76916  0.10293
E26   E   0.10293  0.76916  0.89707
E27   E   0.10293  0.89707  0.23084
E28   E   0.10293  0.89707  0.76916
E29   E   0.12992  0.25782  0.25782
E30   E   0.12992  0.25782  0.74218
E31   E   0.12992  0.74218  0.25782
E32   E   0.12992  0.74218  0.74218
E33   E   0.14557  0.00000  0.23084
E34   E   0.14557  0.00000  0.76916
E35   E   0.14557  0.23084  0.00000
E36   E   0.14557  0.76916  0.00000
E37   E   0.16473  0.25000  0.33527
E38   E   0.16473  0.25000  0.66473
E39   E   0.16473  0.33527  0.25000
E40   E   0.16473  0.33527  0.75000
E41   E   0.16473  0.66473  0.25000
E42   E   0.16473  0.66473  0.75000
E43   E   0.16473  0.75000  0.33527
E44   E   0.16473  0.75000  0.66473
E45   E   0.17255  0.17255  0.30046
E46   E   0.17255  0.17255  0.69954
E47   E   0.17255  0.30046  0.17255
E48   E   0.17255  0.30046  0.82745
E49   E   0.17255  0.69954  0.17255
E50   E   0.17255  0.69954  0.82745
E51   E   0.17255  0.82745  0.30046
E52   E   0.17255  0.82745  0.69954
E53   E   0.18038  0.09511  0.26565
E54   E   0.18038  0.09511  0.73435
E55   E   0.18038  0.26565  0.09511
E56   E   0.18038  0.26565  0.90489
E57   E   0.18038  0.73435  0.09511
E58   E   0.18038  0.73435  0.90489
E59   E   0.18038  0.90489  0.26565
E60   E   0.18038  0.90489  0.73435
E61   E   0.18820  0.06030  0.18820
E62   E   0.18820  0.06030  0.81180
E63   E   0.18820  0.18820  0.06030
E64   E   0.18820  0.18820  0.93970
E65   E   0.18820  0.81180  0.06030
E66   E   0.18820  0.81180  0.93970
E67   E   0.18820  0.93970  0.18820
E68   E   0.18820  0.93970  0.81180
E69   E   0.19954  0.32745  0.32745
E70   E   0.19954  0.32745  0.67255
E71   E   0.19954  0.67255  0.32745
E72   E   0.19954  0.67255  0.67255
E73   E   0.23084  0.00000  0.14557
E74   E   0.23084  0.00000  0.85443
E75   E   0.23084  0.10293  0.10293
E76   E   0.23084  0.10293  0.89707
E77   E   0.23084  0.14557  0.00000
E78   E   0.23084  0.85443  0.00000
E79   E   0.23084  0.89707  0.10293
E80   E   0.23084  0.89707  0.89707
E81   E   0.23435  0.31962  0.40489
E82   E   0.23435  0.31962  0.59511
E83   E   0.23435  0.40489  0.31962
E84   E   0.23435  0.40489  0.68038
E85   E   0.23435  0.59511  0.31962
E86   E   0.23435  0.59511  0.68038
E87   E   0.23435  0.68038  0.40489
E88   E   0.23435  0.68038  0.59511
E89   E   0.24218  0.24218  0.37008
E90   E   0.24218  0.24218  0.62992
E91   E   0.24218  0.37008  0.24218
E92   E   0.24218  0.37008  0.75782
E93   E   0.24218  0.62992  0.24218
E94   E   0.24218  0.62992  0.75782
E95   E   0.24218  0.75782  0.37008
E96   E   0.24218  0.75782  0.62992
E97   E   0.25000  0.16473  0.33527
E98   E   0.25000  0.16473  0.66473
E99   E   0.25000  0.33527  0.16473
E100  E   0.25000  0.33527  0.83527
E101  E   0.25000  0.66473  0.16473
E102  E   0.25000  0.66473  0.83527
E103  E   0.25000  0.83527  0.33527
E104  E   0.25000  0.83527  0.66473
E105  E   0.25782  0.12992  0.25782
E106  E   0.25782  0.12992  0.74218
E107  E   0.25782  0.25782  0.12992
E108  E   0.25782  0.25782  0.87008
E109  E   0.25782  0.74218  0.12992
E110  E   0.25782  0.74218  0.87008
E111  E   0.25782  0.87008  0.25782
E112  E   0.25782  0.87008  0.74218
E113  E   0.26565  0.09511  0.18038
E114  E   0.26565  0.09511  0.81962
E115  E   0.26565  0.18038  0.09511
E116  E   0.26565  0.18038  0.90489
E117  E   0.26565  0.81962  0.09511
E118  E   0.26565  0.81962  0.90489
E119  E   0.26565  0.90489  0.18038
E120  E   0.26565  0.90489  0.81962
E121  E   0.26916  0.35443  0.50000
E122  E   0.26916  0.39707  0.39707
E123  E   0.26916  0.39707  0.60293
E124  E   0.26916  0.50000  0.35443
E125  E   0.26916  0.50000  0.64557
E126  E   0.26916  0.60293  0.39707
E127  E   0.26916  0.60293  0.60293
E128  E   0.26916  0.64557  0.50000
E129  E   0.30046  0.17255  0.17255
E130  E   0.30046  0.17255  0.82745
E131  E   0.30046  0.82745  0.17255
E132  E   0.30046  0.82745  0.82745
E133  E   0.31180  0.31180  0.43970
E134  E   0.31180  0.31180  0.56030
E135  E   0.31180  0.43970  0.31180
E136  E   0.31180  0.43970  0.68820
E137  E   0.31180  0.56030  0.31180
E138  E   0.31180  0.56030  0.68820
E139  E   0.31180  0.68820  0.43970
E140  E   0.31180  0.68820  0.56030
E141  E   0.31962  0.23435  0.40489
E142  E   0.31962  0.23435  0.59511
E143  E   0.31962  0.40489  0.23435
E144  E   0.31962  0.40489  0.76565
E145  E   0.31962  0.59511  0.23435
E146  E   0.31962  0.59511  0.76565
E147  E   0.31962  0.76565  0.40489
E148  E   0.31962  0.76565  0.59511
E149  E   0.32745  0.19954  0.32745
E150  E   0.32745  0.19954  0.67255
E151  E   0.32745  0.32745  0.19954
E152  E   0.32745  0.32745  0.80046
E153  E   0.32745  0.67255  0.19954
E154  E   0.32745  0.67255  0.80046
E155  E   0.32745  0.80046  0.32745
E156  E   0.32745  0.80046  0.67255
E157  E   0.33527  0.16473  0.25000
E158  E   0.33527  0.16473  0.75000
E159  E   0.33527  0.25000  0.16473
E160  E   0.33527  0.25000  0.83527
E161  E   0.33527  0.75000  0.16473
E162  E   0.33527  0.75000  0.83527
E163  E   0.33527  0.83527  0.25000
E164  E   0.33527  0.83527  0.75000
E165  E   0.35443  0.26916  0.50000
E166  E   0.35443  0.50000  0.26916
E167  E   0.35443  0.50000  0.73084
E168  E   0.35443  0.73084  0.50000
E169  E   0.37008  0.24218  0.24218
E170  E   0.37008  0.24218  0.75782
E171  E   0.37008  0.75782  0.24218
E172  E   0.37008  0.75782  0.75782
E173  E   0.39707  0.26916  0.39707
E174  E   0.39707  0.26916  0.60293
E175  E   0.39707  0.39707  0.26916
E176  E   0.39707  0.39707  0.73084
E177  E   0.39707  0.60293  0.26916
E178  E   0.39707  0.60293  0.73084
E179  E   0.39707  0.73084  0.39707
E180  E   0.39707  0.73084  0.60293
E181  E   0.40489  0.23435  0.31962
E182  E   0.40489  0.23435  0.68038
E183  E   0.40489  0.31962  0.23435
E184  E   0.40489  0.31962  0.76565
E185  E   0.40489  0.68038  0.23435
E186  E   0.40489  0.68038  0.76565
E187  E   0.40489  0.76565  0.31962
E188  E   0.40489  0.76565  0.68038
E189  E   0.43970  0.31180  0.31180
E190  E   0.43970  0.31180  0.68820
E191  E   0.43970  0.68820  0.31180
E192  E   0.43970  0.68820  0.68820
E193  E   0.50000  0.26916  0.35443
E194  E   0.50000  0.26916  0.64557
E195  E   0.50000  0.35443  0.26916
E196  E   0.50000  0.35443  0.73084
E197  E   0.50000  0.64557  0.26916
E198  E   0.50000  0.64557  0.73084
E199  E   0.50000  0.73084  0.35443
E200  E   0.50000  0.73084  0.64557
E201  E   0.56030  0.31180  0.31180
E202  E   0.56030  0.31180  0.68820
E203  E   0.56030  0.68820  0.31180
E204  E   0.56030  0.68820  0.68820
E205  E   0.59511  0.23435  0.31962
E206  E   0.59511  0.23435  0.68038
E207  E   0.59511  0.31962  0.23435
E208  E   0.59511  0.31962  0.76565
E209  E   0.59511  0.68038  0.23435
E210  E   0.59511  0.68038  0.76565
E211  E   0.59511  0.76565  0.31962
E212  E   0.59511  0.76565  0.68038
E213  E   0.60293  0.26916  0.39707
E214  E   0.60293  0.26916  0.60293
E215  E   0.60293  0.39707  0.26916
E216  E   0.60293  0.39707  0.73084
E217  E   0.60293  0.60293  0.26916
E218  E   0.60293  0.60293  0.73084
E219  E   0.60293  0.73084  0.39707
E220  E   0.60293  0.73084  0.60293
E221  E   0.62992  0.24218  0.24218
E222  E   0.62992  0.24218  0.75782
E223  E   0.62992  0.75782  0.24218
E224  E   0.62992  0.75782  0.75782
E225  E   0.64557  0.26916  0.50000
E226  E   0.64557  0.50000  0.26916
E227  E   0.64557  0.50000  0.73084
E228  E   0.64557  0.73084  0.50000
E229  E   0.66473  0.16473  0.25000
E230  E   0.66473  0.16473  0.75000
E231  E   0.66473  0.25000  0.16473
E232  E   0.66473  0.25000  0.83527
E233  E   0.66473  0.75000  0.16473
E234  E   0.66473  0.75000  0.83527
E235  E   0.66473  0.83527  0.25000
E236  E   0.66473  0.83527  0.75000
E237  E   0.67255  0.19954  0.32745
E238  E   0.67255  0.19954  0.67255
E239  E   0.67255  0.32745  0.19954
E240  E   0.67255  0.32745  0.80046
E241  E   0.67255  0.67255  0.19954
E242  E   0.67255  0.67255  0.80046
E243  E   0.67255  0.80046  0.32745
E244  E   0.67255  0.80046  0.67255
E245  E   0.68038  0.23435  0.40489
E246  E   0.68038  0.23435  0.59511
E247  E   0.68038  0.40489  0.23435
E248  E   0.68038  0.40489  0.76565
E249  E   0.68038  0.59511  0.23435
E250  E   0.68038  0.59511  0.76565
E251  E   0.68038  0.76565  0.40489
E252  E   0.68038  0.76565  0.59511
E253  E   0.68820  0.31180  0.43970
E254  E   0.68820  0.31180  0.56030
E255  E   0.68820  0.43970  0.31180
E256  E   0.68820  0.43970  0.68820
E257  E   0.68820  0.56030  0.31180
E258  E   0.68820  0.56030  0.68820
E259  E   0.68820  0.68820  0.43970
E260  E   0.68820  0.68820  0.56030
E261  E   0.69954  0.17255  0.17255
E262  E   0.69954  0.17255  0.82745
E263  E   0.69954  0.82745  0.17255
E264  E   0.69954  0.82745  0.82745
E265  E   0.73084  0.35443  0.50000
E266  E   0.73084  0.39707  0.39707
E267  E   0.73084  0.39707  0.60293
E268  E   0.73084  0.50000  0.35443
E269  E   0.73084  0.50000  0.64557
E270  E   0.73084  0.60293  0.39707
E271  E   0.73084  0.60293  0.60293
E272  E   0.73084  0.64557  0.50000
E273  E   0.73435  0.09511  0.18038
E274  E   0.73435  0.09511  0.81962
E275  E   0.73435  0.18038  0.09511
E276  E   0.73435  0.18038  0.90489
E277  E   0.73435  0.81962  0.09511
E278  E   0.73435  0.81962  0.90489
E279  E   0.73435  0.90489  0.18038
E280  E   0.73435  0.90489  0.81962
E281  E   0.74218  0.12992  0.25782
E282  E   0.74218  0.12992  0.74218
E283  E   0.74218  0.25782  0.12992
E284  E   0.74218  0.25782  0.87008
E285  E   0.74218  0.74218  0.12992
E286  E   0.74218  0.74218  0.87008
E287  E   0.74218  0.87008  0.25782
E288  E   0.74218  0.87008  0.74218
E289  E   0.75000  0.16473  0.33527
E290  E   0.75000  0.16473  0.66473
E291  E   0.75000  0.33527  0.16473
E292  E   0.75000  0.33527  0.83527
E293  E   0.75000  0.66473  0.16473
E294  E   0.75000  0.66473  0.83527
E295  E   0.75000  0.83527  0.33527
E296  E   0.75000  0.83527  0.66473
E297  E   0.75782  0.24218  0.37008
E298  E   0.75782  0.24218  0.62992
E299  E   0.75782  0.37008  0.24218
E300  E   0.75782  0.37008  0.75782
E301  E   0.75782  0.62992  0.24218
E302  E   0.75782  0.62992  0.75782
E303  E   0.75782  0.75782  0.37008
E304  E   0.75782  0.75782  0.62992
E305  E   0.76565  0.31962  0.40489
E306  E   0.76565  0.31962  0.59511
E307  E   0.76565  0.40489  0.31962
E308  E   0.76565  0.40489  0.68038
E309  E   0.76565  0.59511  0.31962
E310  E   0.76565  0.59511  0.68038
E311  E   0.76565  0.68038  0.40489
E312  E   0.76565  0.68038  0.59511
E313  E   0.76916  0.00000  0.14557
E314  E   0.76916  0.00000  0.85443
E315  E   0.76916  0.10293  0.10293
E316  E   0.76916  0.10293  0.89707
E317  E   0.76916  0.14557  0.00000
E318  E   0.76916  0.85443  0.00000
E319  E   0.76916  0.89707  0.10293
E320  E   0.76916  0.89707  0.89707
E321  E   0.80046  0.32745  0.32745
E322  E   0.80046  0.32745  0.67255
E323  E   0.80046  0.67255  0.32745
E324  E   0.80046  0.67255  0.67255
E325  E   0.81180  0.06030  0.18820
E326  E   0.81180  0.06030  0.81180
E327  E   0.81180  0.18820  0.06030
E328  E   0.81180  0.18820  0.93970
E329  E   0.81180  0.81180  0.06030
E330  E   0.81180  0.81180  0.93970
E331  E   0.81180  0.93970  0.18820
E332  E   0.81180  0.93970  0.81180
E333  E   0.81962  0.09511  0.26565
E334  E   0.81962  0.09511  0.73435
E335  E   0.81962  0.26565  0.09511
E336  E   0.81962  0.26565  0.90489
E337  E   0.81962  0.73435  0.09511
E338  E   0.81962  0.73435  0.90489
E339  E   0.81962  0.90489  0.26565
E340  E   0.81962  0.90489  0.73435
E341  E   0.82745  0.17255  0.30046
E342  E   0.82745  0.17255  0.69954
E343  E   0.82745  0.30046  0.17255
E344  E   0.82745  0.30046  0.82745
E345  E   0.82745  0.69954  0.17255
E346  E   0.82745  0.69954  0.82745
E347  E   0.82745  0.82745  0.30046
E348  E   0.82745  0.82745  0.69954
E349  E   0.83527  0.25000  0.33527
E350  E   0.83527  0.25000  0.66473
E351  E   0.83527  0.33527  0.25000
E352  E   0.83527  0.33527  0.75000
E353  E   0.83527  0.66473  0.25000
E354  E   0.83527  0.66473  0.75000
E355  E   0.83527  0.75000  0.33527
E356  E   0.83527  0.75000  0.66473
E357  E   0.85443  0.00000  0.23084
E358  E   0.85443  0.00000  0.76916
E359  E   0.85443  0.23084  0.00000
E360  E   0.85443  0.76916  0.00000
E361  E   0.87008  0.25782  0.25782
E362  E   0.87008  0.25782  0.74218
E363  E   0.87008  0.74218  0.25782
E364  E   0.87008  0.74218  0.74218
E365  E   0.89707  0.10293  0.23084
E366  E   0.89707  0.10293  0.76916
E367  E   0.89707  0.23084  0.10293
E368  E   0.89707  0.23084  0.89707
E369  E   0.89707  0.76916  0.10293
E370  E   0.89707  0.76916  0.89707
E371  E   0.89707  0.89707  0.23084
E372  E   0.89707  0.89707  0.76916
E373  E   0.90489  0.18038  0.26565
E374  E   0.90489  0.18038  0.73435
E375  E   0.90489  0.26565  0.18038
E376  E   0.90489  0.26565  0.81962
E377  E   0.90489  0.73435  0.18038
E378  E   0.90489  0.73435  0.81962
E379  E   0.90489  0.81962  0.26565
E380  E   0.90489  0.81962  0.73435
E381  E   0.93970  0.18820  0.18820
E382  E   0.93970  0.18820  0.81180
E383  E   0.93970  0.81180  0.18820
E384  E   0.93970  0.81180  0.81180
loop_
