data_bca_P6/mmm  hall_number: 485, V_con: 4, EC_con: 4
_audit_creation_date              2025-03-06
_audit_creation_method            'MOFbuilder_1.0'
_symmetry_space_group_name_H-M    'P1'
_symmetry_Int_Tables_number       1
_symmetry_cell_setting            triclinic
loop_
_symmetry_equiv_pos_as_xyz
  x,y,z
_cell_length_a                    72.9984
_cell_length_b                    72.9984
_cell_length_c                    23.4243
_cell_angle_alpha                 90.0
_cell_angle_beta                  90.0
_cell_angle_gamma                 120.0
loop_
_atom_site_label
_atom_site_type_symbol
_atom_site_fract_x
_atom_site_fract_y
_atom_site_fract_z
V1    V   0.07909  0.47105  0.28655
V2    V   0.07909  0.47105  0.71345
V3    V   0.07909  0.60804  0.28655
V4    V   0.07909  0.60804  0.71345
V5    V   0.39196  0.47105  0.28655
V6    V   0.39196  0.47105  0.71345
V7    V   0.39196  0.92091  0.28655
V8    V   0.39196  0.92091  0.71345
V9    V   0.47105  0.07909  0.28655
V10   V   0.47105  0.07909  0.71345
V11   V   0.47105  0.39196  0.28655
V12   V   0.47105  0.39196  0.71345
V13   V   0.52895  0.60804  0.28655
V14   V   0.52895  0.60804  0.71345
V15   V   0.52895  0.92091  0.28655
V16   V   0.52895  0.92091  0.71345
V17   V   0.60804  0.07909  0.28655
V18   V   0.60804  0.07909  0.71345
V19   V   0.60804  0.52895  0.28655
V20   V   0.60804  0.52895  0.71345
V21   V   0.92091  0.39196  0.28655
V22   V   0.92091  0.39196  0.71345
V23   V   0.92091  0.52895  0.28655
V24   V   0.92091  0.52895  0.71345
EC1    EC   0.19634  0.52968  0.00000
EC2    EC   0.19634  0.66666  0.00000
EC3    EC   0.33334  0.52968  0.00000
EC4    EC   0.33334  0.80366  0.00000
EC5    EC   0.47032  0.66666  0.00000
EC6    EC   0.47032  0.80366  0.00000
EC7    EC   0.52968  0.19634  0.00000
EC8    EC   0.52968  0.33334  0.00000
EC9    EC   0.66666  0.19634  0.00000
EC10   EC   0.66666  0.47032  0.00000
EC11   EC   0.80366  0.33334  0.00000
EC12   EC   0.80366  0.47032  0.00000
E1    E   0.00000  0.43150  0.28655
E2    E   0.00000  0.43150  0.71345
E3    E   0.00000  0.56850  0.28655
E4    E   0.00000  0.56850  0.71345
E5    E   0.07909  0.47105  0.50000
E6    E   0.07909  0.53954  0.28655
E7    E   0.07909  0.53954  0.71345
E8    E   0.07909  0.53955  0.28655
E9    E   0.07909  0.53955  0.71345
E10   E   0.07909  0.60804  0.50000
E11   E   0.13772  0.50036  0.14327
E12   E   0.13772  0.50036  0.85673
E13   E   0.13772  0.63736  0.14327
E14   E   0.13772  0.63736  0.85673
E15   E   0.19634  0.59817  0.00000
E16   E   0.26484  0.52968  0.00000
E17   E   0.26484  0.73516  0.00000
E18   E   0.36264  0.50036  0.14327
E19   E   0.36264  0.50036  0.85673
E20   E   0.36264  0.86228  0.14327
E21   E   0.36264  0.86228  0.85673
E22   E   0.39196  0.47105  0.50000
E23   E   0.39196  0.92091  0.50000
E24   E   0.40183  0.59817  0.00000
E25   E   0.40183  0.80366  0.00000
E26   E   0.43150  0.00000  0.28655
E27   E   0.43150  0.00000  0.71345
E28   E   0.43150  0.43150  0.28655
E29   E   0.43150  0.43150  0.71345
E30   E   0.46045  0.53954  0.28655
E31   E   0.46045  0.53954  0.71345
E32   E   0.46045  0.92091  0.28655
E33   E   0.46045  0.92091  0.71345
E34   E   0.46046  0.53955  0.28655
E35   E   0.46046  0.53955  0.71345
E36   E   0.46046  0.92091  0.28655
E37   E   0.46046  0.92091  0.71345
E38   E   0.47032  0.73516  0.00000
E39   E   0.47105  0.07909  0.50000
E40   E   0.47105  0.39196  0.50000
E41   E   0.49964  0.63736  0.14327
E42   E   0.49964  0.63736  0.85673
E43   E   0.49964  0.86228  0.14327
E44   E   0.49964  0.86228  0.85673
E45   E   0.50036  0.13772  0.14327
E46   E   0.50036  0.13772  0.85673
E47   E   0.50036  0.36264  0.14327
E48   E   0.50036  0.36264  0.85673
E49   E   0.52895  0.60804  0.50000
E50   E   0.52895  0.92091  0.50000
E51   E   0.52968  0.26484  0.00000
E52   E   0.53954  0.07909  0.28655
E53   E   0.53954  0.07909  0.71345
E54   E   0.53954  0.46045  0.28655
E55   E   0.53954  0.46045  0.71345
E56   E   0.53955  0.07909  0.28655
E57   E   0.53955  0.07909  0.71345
E58   E   0.53955  0.46046  0.28655
E59   E   0.53955  0.46046  0.71345
E60   E   0.56850  0.00000  0.28655
E61   E   0.56850  0.00000  0.71345
E62   E   0.56850  0.56850  0.28655
E63   E   0.56850  0.56850  0.71345
E64   E   0.59817  0.19634  0.00000
E65   E   0.59817  0.40183  0.00000
E66   E   0.60804  0.07909  0.50000
E67   E   0.60804  0.52895  0.50000
E68   E   0.63736  0.13772  0.14327
E69   E   0.63736  0.13772  0.85673
E70   E   0.63736  0.49964  0.14327
E71   E   0.63736  0.49964  0.85673
E72   E   0.73516  0.26484  0.00000
E73   E   0.73516  0.47032  0.00000
E74   E   0.80366  0.40183  0.00000
E75   E   0.86228  0.36264  0.14327
E76   E   0.86228  0.36264  0.85673
E77   E   0.86228  0.49964  0.14327
E78   E   0.86228  0.49964  0.85673
E79   E   0.92091  0.39196  0.50000
E80   E   0.92091  0.46045  0.28655
E81   E   0.92091  0.46045  0.71345
E82   E   0.92091  0.46046  0.28655
E83   E   0.92091  0.46046  0.71345
E84   E   0.92091  0.52895  0.50000
loop_
