data_bcj_Im-3m  hall_number: 529, V_con: 4, EC_con: 4
_audit_creation_date              2025-03-06
_audit_creation_method            'MOFbuilder_1.0'
_symmetry_space_group_name_H-M    'P1'
_symmetry_Int_Tables_number       1
_symmetry_cell_setting            triclinic
loop_
_symmetry_equiv_pos_as_xyz
  x,y,z
_cell_length_a                    69.2593
_cell_length_b                    69.2593
_cell_length_c                    69.2593
_cell_angle_alpha                 90.0
_cell_angle_beta                  90.0
_cell_angle_gamma                 90.0
loop_
_atom_site_label
_atom_site_type_symbol
_atom_site_fract_x
_atom_site_fract_y
_atom_site_fract_z
V1    V   0.20832  0.20832  0.20832
V2    V   0.20832  0.20832  0.79168
V3    V   0.20832  0.79168  0.20832
V4    V   0.20832  0.79168  0.79168
V5    V   0.29168  0.29168  0.29168
V6    V   0.29168  0.29168  0.70832
V7    V   0.29168  0.70832  0.29168
V8    V   0.29168  0.70832  0.70832
V9    V   0.70832  0.29168  0.29168
V10   V   0.70832  0.29168  0.70832
V11   V   0.70832  0.70832  0.29168
V12   V   0.70832  0.70832  0.70832
V13   V   0.79168  0.20832  0.20832
V14   V   0.79168  0.20832  0.79168
V15   V   0.79168  0.79168  0.20832
V16   V   0.79168  0.79168  0.79168
EC1    EC   0.07219  0.17429  0.17429
EC2    EC   0.07219  0.17429  0.82571
EC3    EC   0.07219  0.82571  0.17429
EC4    EC   0.07219  0.82571  0.82571
EC5    EC   0.17429  0.07219  0.17429
EC6    EC   0.17429  0.07219  0.82571
EC7    EC   0.17429  0.17429  0.07219
EC8    EC   0.17429  0.17429  0.92781
EC9    EC   0.17429  0.82571  0.07219
EC10   EC   0.17429  0.82571  0.92781
EC11   EC   0.17429  0.92781  0.17429
EC12   EC   0.17429  0.92781  0.82571
EC13   EC   0.32571  0.32571  0.42781
EC14   EC   0.32571  0.32571  0.57219
EC15   EC   0.32571  0.42781  0.32571
EC16   EC   0.32571  0.42781  0.67429
EC17   EC   0.32571  0.57219  0.32571
EC18   EC   0.32571  0.57219  0.67429
EC19   EC   0.32571  0.67429  0.42781
EC20   EC   0.32571  0.67429  0.57219
EC21   EC   0.42781  0.32571  0.32571
EC22   EC   0.42781  0.32571  0.67429
EC23   EC   0.42781  0.67429  0.32571
EC24   EC   0.42781  0.67429  0.67429
EC25   EC   0.57219  0.32571  0.32571
EC26   EC   0.57219  0.32571  0.67429
EC27   EC   0.57219  0.67429  0.32571
EC28   EC   0.57219  0.67429  0.67429
EC29   EC   0.67429  0.32571  0.42781
EC30   EC   0.67429  0.32571  0.57219
EC31   EC   0.67429  0.42781  0.32571
EC32   EC   0.67429  0.42781  0.67429
EC33   EC   0.67429  0.57219  0.32571
EC34   EC   0.67429  0.57219  0.67429
EC35   EC   0.67429  0.67429  0.42781
EC36   EC   0.67429  0.67429  0.57219
EC37   EC   0.82571  0.07219  0.17429
EC38   EC   0.82571  0.07219  0.82571
EC39   EC   0.82571  0.17429  0.07219
EC40   EC   0.82571  0.17429  0.92781
EC41   EC   0.82571  0.82571  0.07219
EC42   EC   0.82571  0.82571  0.92781
EC43   EC   0.82571  0.92781  0.17429
EC44   EC   0.82571  0.92781  0.82571
EC45   EC   0.92781  0.17429  0.17429
EC46   EC   0.92781  0.17429  0.82571
EC47   EC   0.92781  0.82571  0.17429
EC48   EC   0.92781  0.82571  0.82571
E1    E   0.00000  0.17429  0.17429
E2    E   0.00000  0.17429  0.82571
E3    E   0.00000  0.82571  0.17429
E4    E   0.00000  0.82571  0.82571
E5    E   0.12324  0.12324  0.17429
E6    E   0.12324  0.12324  0.82571
E7    E   0.12324  0.17429  0.12324
E8    E   0.12324  0.17429  0.87676
E9    E   0.12324  0.82571  0.12324
E10   E   0.12324  0.82571  0.87676
E11   E   0.12324  0.87676  0.17429
E12   E   0.12324  0.87676  0.82571
E13   E   0.14026  0.19130  0.19130
E14   E   0.14026  0.19130  0.80870
E15   E   0.14026  0.80870  0.19130
E16   E   0.14026  0.80870  0.80870
E17   E   0.17429  0.00000  0.17429
E18   E   0.17429  0.00000  0.82571
E19   E   0.17429  0.12324  0.12324
E20   E   0.17429  0.12324  0.87676
E21   E   0.17429  0.17429  0.00000
E22   E   0.17429  0.82571  0.00000
E23   E   0.17429  0.87676  0.12324
E24   E   0.17429  0.87676  0.87676
E25   E   0.19130  0.14026  0.19130
E26   E   0.19130  0.14026  0.80870
E27   E   0.19130  0.19130  0.14026
E28   E   0.19130  0.19130  0.85974
E29   E   0.19130  0.80870  0.14026
E30   E   0.19130  0.80870  0.85974
E31   E   0.19130  0.85974  0.19130
E32   E   0.19130  0.85974  0.80870
E33   E   0.25000  0.25000  0.25000
E34   E   0.25000  0.25000  0.75000
E35   E   0.25000  0.75000  0.25000
E36   E   0.25000  0.75000  0.75000
E37   E   0.30870  0.30870  0.35974
E38   E   0.30870  0.30870  0.64026
E39   E   0.30870  0.35974  0.30870
E40   E   0.30870  0.35974  0.69130
E41   E   0.30870  0.64026  0.30870
E42   E   0.30870  0.64026  0.69130
E43   E   0.30870  0.69130  0.35974
E44   E   0.30870  0.69130  0.64026
E45   E   0.32571  0.32571  0.50000
E46   E   0.32571  0.37676  0.37676
E47   E   0.32571  0.37676  0.62324
E48   E   0.32571  0.50000  0.32571
E49   E   0.32571  0.50000  0.67429
E50   E   0.32571  0.62324  0.37676
E51   E   0.32571  0.62324  0.62324
E52   E   0.32571  0.67429  0.50000
E53   E   0.35974  0.30870  0.30870
E54   E   0.35974  0.30870  0.69130
E55   E   0.35974  0.69130  0.30870
E56   E   0.35974  0.69130  0.69130
E57   E   0.37676  0.32571  0.37676
E58   E   0.37676  0.32571  0.62324
E59   E   0.37676  0.37676  0.32571
E60   E   0.37676  0.37676  0.67429
E61   E   0.37676  0.62324  0.32571
E62   E   0.37676  0.62324  0.67429
E63   E   0.37676  0.67429  0.37676
E64   E   0.37676  0.67429  0.62324
E65   E   0.50000  0.32571  0.32571
E66   E   0.50000  0.32571  0.67429
E67   E   0.50000  0.67429  0.32571
E68   E   0.50000  0.67429  0.67429
E69   E   0.62324  0.32571  0.37676
E70   E   0.62324  0.32571  0.62324
E71   E   0.62324  0.37676  0.32571
E72   E   0.62324  0.37676  0.67429
E73   E   0.62324  0.62324  0.32571
E74   E   0.62324  0.62324  0.67429
E75   E   0.62324  0.67429  0.37676
E76   E   0.62324  0.67429  0.62324
E77   E   0.64026  0.30870  0.30870
E78   E   0.64026  0.30870  0.69130
E79   E   0.64026  0.69130  0.30870
E80   E   0.64026  0.69130  0.69130
E81   E   0.67429  0.32571  0.50000
E82   E   0.67429  0.37676  0.37676
E83   E   0.67429  0.37676  0.62324
E84   E   0.67429  0.50000  0.32571
E85   E   0.67429  0.50000  0.67429
E86   E   0.67429  0.62324  0.37676
E87   E   0.67429  0.62324  0.62324
E88   E   0.67429  0.67429  0.50000
E89   E   0.69130  0.30870  0.35974
E90   E   0.69130  0.30870  0.64026
E91   E   0.69130  0.35974  0.30870
E92   E   0.69130  0.35974  0.69130
E93   E   0.69130  0.64026  0.30870
E94   E   0.69130  0.64026  0.69130
E95   E   0.69130  0.69130  0.35974
E96   E   0.69130  0.69130  0.64026
E97   E   0.75000  0.25000  0.25000
E98   E   0.75000  0.25000  0.75000
E99   E   0.75000  0.75000  0.25000
E100  E   0.75000  0.75000  0.75000
E101  E   0.80870  0.14026  0.19130
E102  E   0.80870  0.14026  0.80870
E103  E   0.80870  0.19130  0.14026
E104  E   0.80870  0.19130  0.85974
E105  E   0.80870  0.80870  0.14026
E106  E   0.80870  0.80870  0.85974
E107  E   0.80870  0.85974  0.19130
E108  E   0.80870  0.85974  0.80870
E109  E   0.82571  0.00000  0.17429
E110  E   0.82571  0.00000  0.82571
E111  E   0.82571  0.12324  0.12324
E112  E   0.82571  0.12324  0.87676
E113  E   0.82571  0.17429  0.00000
E114  E   0.82571  0.82571  0.00000
E115  E   0.82571  0.87676  0.12324
E116  E   0.82571  0.87676  0.87676
E117  E   0.85974  0.19130  0.19130
E118  E   0.85974  0.19130  0.80870
E119  E   0.85974  0.80870  0.19130
E120  E   0.85974  0.80870  0.80870
E121  E   0.87676  0.12324  0.17429
E122  E   0.87676  0.12324  0.82571
E123  E   0.87676  0.17429  0.12324
E124  E   0.87676  0.17429  0.87676
E125  E   0.87676  0.82571  0.12324
E126  E   0.87676  0.82571  0.87676
E127  E   0.87676  0.87676  0.17429
E128  E   0.87676  0.87676  0.82571
loop_
