data_bck_P3212  hall_number: 442, V_con: 4, EC_con: 4
_audit_creation_date              2025-03-06
_audit_creation_method            'MOFbuilder_1.0'
_symmetry_space_group_name_H-M    'P1'
_symmetry_Int_Tables_number       1
_symmetry_cell_setting            triclinic
loop_
_symmetry_equiv_pos_as_xyz
  x,y,z
_cell_length_a                    24.9765
_cell_length_b                    24.9765
_cell_length_c                    22.4026
_cell_angle_alpha                 90.0
_cell_angle_beta                  90.0
_cell_angle_gamma                 120.0
loop_
_atom_site_label
_atom_site_type_symbol
_atom_site_fract_x
_atom_site_fract_y
_atom_site_fract_z
V1    V   0.24457  0.48914  0.83334
V2    V   0.24457  0.75543  0.16666
V3    V   0.24457  0.48914  0.83333
V4    V   0.24457  0.75543  0.16667
V5    V   0.51086  0.75543  0.50000
V6    V   0.51086  0.75543  0.50000
EC1    EC   0.57790  0.15581  0.33333
EC2    EC   0.57790  0.42209  0.66667
EC3    EC   0.57791  0.15581  0.33334
EC4    EC   0.57791  0.42210  0.66666
EC5    EC   0.84419  0.42209  1.00000
EC6    EC   0.84419  0.42210  0.00000
E1    E   0.04438  0.45562  0.91667
E2    E   0.04438  0.58876  0.08333
E3    E   0.24457  0.62228  0.00000
E4    E   0.24457  0.62229  0.00000
E5    E   0.37771  0.62228  0.66667
E6    E   0.37771  0.75543  0.33333
E7    E   0.37772  0.62229  0.66667
E8    E   0.37772  0.75543  0.33333
E9    E   0.41124  0.45562  0.75000
E10   E   0.41124  0.95562  0.25000
E11   E   0.54438  0.58876  0.58333
E12   E   0.54438  0.95562  0.41667
E13   E   0.57790  0.28895  0.50000
E14   E   0.57790  0.28895  0.50000
E15   E   0.71105  0.28895  0.16667
E16   E   0.71105  0.28895  0.16666
E17   E   0.71105  0.42210  0.83333
E18   E   0.71105  0.42210  0.83334
loop_
