data_bcu-f_I422  hall_number: 374, V_con: 3
_audit_creation_date              2025-03-06
_audit_creation_method            'MOFbuilder_1.0'
_symmetry_space_group_name_H-M    'P1'
_symmetry_Int_Tables_number       1
_symmetry_cell_setting            triclinic
loop_
_symmetry_equiv_pos_as_xyz
  x,y,z
_cell_length_a                    39.8438
_cell_length_b                    39.8438
_cell_length_c                    24.0085
_cell_angle_alpha                 90.0
_cell_angle_beta                  90.0
_cell_angle_gamma                 90.0
loop_
_atom_site_label
_atom_site_type_symbol
_atom_site_fract_x
_atom_site_fract_y
_atom_site_fract_z
V1    V   0.11266  0.27198  0.90825
V2    V   0.11266  0.72802  0.09175
V3    V   0.22802  0.38734  0.59175
V4    V   0.22802  0.61266  0.40825
V5    V   0.27198  0.11266  0.09175
V6    V   0.27198  0.88734  0.90825
V7    V   0.38734  0.22802  0.40825
V8    V   0.38734  0.77198  0.59175
V9    V   0.61266  0.22802  0.59175
V10   V   0.61266  0.77198  0.40825
V11   V   0.72802  0.11266  0.90825
V12   V   0.72802  0.88734  0.09175
V13   V   0.77198  0.38734  0.40825
V14   V   0.77198  0.61266  0.59175
V15   V   0.88734  0.27198  0.09175
V16   V   0.88734  0.72802  0.90825
E1    E   0.00000  0.27198  0.00000
E2    E   0.00000  0.72802  0.00000
E3    E   0.17034  0.32966  0.75000
E4    E   0.17034  0.67034  0.25000
E5    E   0.19232  0.19232  0.00000
E6    E   0.19232  0.80768  0.00000
E7    E   0.22802  0.50000  0.50000
E8    E   0.27198  0.00000  0.00000
E9    E   0.30768  0.30768  0.50000
E10   E   0.30768  0.69232  0.50000
E11   E   0.32966  0.17034  0.25000
E12   E   0.32966  0.82966  0.75000
E13   E   0.50000  0.22802  0.50000
E14   E   0.50000  0.77198  0.50000
E15   E   0.67034  0.17034  0.75000
E16   E   0.67034  0.82966  0.25000
E17   E   0.69232  0.30768  0.50000
E18   E   0.69232  0.69232  0.50000
E19   E   0.72802  0.00000  0.00000
E20   E   0.77198  0.50000  0.50000
E21   E   0.80768  0.19232  0.00000
E22   E   0.80768  0.80768  0.00000
E23   E   0.82966  0.32966  0.25000
E24   E   0.82966  0.67034  0.75000
loop_
