data_bcv_Ia-3d  hall_number: 530, V_con: 4, EC_con: 4
_audit_creation_date              2025-03-06
_audit_creation_method            'MOFbuilder_1.0'
_symmetry_space_group_name_H-M    'P1'
_symmetry_Int_Tables_number       1
_symmetry_cell_setting            triclinic
loop_
_symmetry_equiv_pos_as_xyz
  x,y,z
_cell_length_a                    65.4267
_cell_length_b                    65.4267
_cell_length_c                    65.4267
_cell_angle_alpha                 90.0
_cell_angle_beta                  90.0
_cell_angle_gamma                 90.0
loop_
_atom_site_label
_atom_site_type_symbol
_atom_site_fract_x
_atom_site_fract_y
_atom_site_fract_z
V1    V   0.00000  0.25000  0.37500
V2    V   0.00000  0.25000  0.87500
V3    V   0.00000  0.75000  0.12500
V4    V   0.00000  0.75000  0.62500
V5    V   0.12500  0.00000  0.75000
V6    V   0.12500  0.50000  0.25000
V7    V   0.25000  0.12500  0.50000
V8    V   0.25000  0.37500  0.00000
V9    V   0.25000  0.62500  0.50000
V10   V   0.25000  0.87500  0.00000
V11   V   0.37500  0.00000  0.25000
V12   V   0.37500  0.50000  0.75000
V13   V   0.50000  0.25000  0.12500
V14   V   0.50000  0.25000  0.62500
V15   V   0.50000  0.75000  0.37500
V16   V   0.50000  0.75000  0.87500
V17   V   0.62500  0.00000  0.75000
V18   V   0.62500  0.50000  0.25000
V19   V   0.75000  0.12500  0.00000
V20   V   0.75000  0.37500  0.50000
V21   V   0.75000  0.62500  0.00000
V22   V   0.75000  0.87500  0.50000
V23   V   0.87500  0.00000  0.25000
V24   V   0.87500  0.50000  0.75000
EC1    EC   0.06122  0.12177  0.43130
EC2    EC   0.06122  0.37823  0.93130
EC3    EC   0.06122  0.62177  0.56870
EC4    EC   0.06122  0.87823  0.06870
EC5    EC   0.06870  0.06122  0.87823
EC6    EC   0.06870  0.43878  0.37823
EC7    EC   0.06870  0.56122  0.12177
EC8    EC   0.06870  0.93878  0.62177
EC9    EC   0.12177  0.06870  0.56122
EC10   EC   0.12177  0.43130  0.06122
EC11   EC   0.12177  0.56870  0.43878
EC12   EC   0.12177  0.93130  0.93878
EC13   EC   0.12823  0.18878  0.81870
EC14   EC   0.12823  0.31122  0.31870
EC15   EC   0.12823  0.68878  0.18130
EC16   EC   0.12823  0.81122  0.68130
EC17   EC   0.18130  0.12823  0.68878
EC18   EC   0.18130  0.37177  0.18878
EC19   EC   0.18130  0.62823  0.31122
EC20   EC   0.18130  0.87177  0.81122
EC21   EC   0.18878  0.18130  0.37177
EC22   EC   0.18878  0.31870  0.87177
EC23   EC   0.18878  0.68130  0.62823
EC24   EC   0.18878  0.81870  0.12823
EC25   EC   0.31122  0.18130  0.62823
EC26   EC   0.31122  0.31870  0.12823
EC27   EC   0.31122  0.68130  0.37177
EC28   EC   0.31122  0.81870  0.87177
EC29   EC   0.31870  0.12823  0.31122
EC30   EC   0.31870  0.37177  0.81122
EC31   EC   0.31870  0.62823  0.68878
EC32   EC   0.31870  0.87177  0.18878
EC33   EC   0.37177  0.18878  0.18130
EC34   EC   0.37177  0.31122  0.68130
EC35   EC   0.37177  0.68878  0.81870
EC36   EC   0.37177  0.81122  0.31870
EC37   EC   0.37823  0.06870  0.43878
EC38   EC   0.37823  0.43130  0.93878
EC39   EC   0.37823  0.56870  0.56122
EC40   EC   0.37823  0.93130  0.06122
EC41   EC   0.43130  0.06122  0.12177
EC42   EC   0.43130  0.43878  0.62177
EC43   EC   0.43130  0.56122  0.87823
EC44   EC   0.43130  0.93878  0.37823
EC45   EC   0.43878  0.12177  0.56870
EC46   EC   0.43878  0.37823  0.06870
EC47   EC   0.43878  0.62177  0.43130
EC48   EC   0.43878  0.87823  0.93130
EC49   EC   0.56122  0.12177  0.06870
EC50   EC   0.56122  0.37823  0.56870
EC51   EC   0.56122  0.62177  0.93130
EC52   EC   0.56122  0.87823  0.43130
EC53   EC   0.56870  0.06122  0.62177
EC54   EC   0.56870  0.43878  0.12177
EC55   EC   0.56870  0.56122  0.37823
EC56   EC   0.56870  0.93878  0.87823
EC57   EC   0.62177  0.06870  0.93878
EC58   EC   0.62177  0.43130  0.43878
EC59   EC   0.62177  0.56870  0.06122
EC60   EC   0.62177  0.93130  0.56122
EC61   EC   0.62823  0.18878  0.68130
EC62   EC   0.62823  0.31122  0.18130
EC63   EC   0.62823  0.68878  0.31870
EC64   EC   0.62823  0.81122  0.81870
EC65   EC   0.68130  0.12823  0.81122
EC66   EC   0.68130  0.37177  0.31122
EC67   EC   0.68130  0.62823  0.18878
EC68   EC   0.68130  0.87177  0.68878
EC69   EC   0.68878  0.18130  0.12823
EC70   EC   0.68878  0.31870  0.62823
EC71   EC   0.68878  0.68130  0.87177
EC72   EC   0.68878  0.81870  0.37177
EC73   EC   0.81122  0.18130  0.87177
EC74   EC   0.81122  0.31870  0.37177
EC75   EC   0.81122  0.68130  0.12823
EC76   EC   0.81122  0.81870  0.62823
EC77   EC   0.81870  0.12823  0.18878
EC78   EC   0.81870  0.37177  0.68878
EC79   EC   0.81870  0.62823  0.81122
EC80   EC   0.81870  0.87177  0.31122
EC81   EC   0.87177  0.18878  0.31870
EC82   EC   0.87177  0.31122  0.81870
EC83   EC   0.87177  0.68878  0.68130
EC84   EC   0.87177  0.81122  0.18130
EC85   EC   0.87823  0.06870  0.06122
EC86   EC   0.87823  0.43130  0.56122
EC87   EC   0.87823  0.56870  0.93878
EC88   EC   0.87823  0.93130  0.43878
EC89   EC   0.93130  0.06122  0.37823
EC90   EC   0.93130  0.43878  0.87823
EC91   EC   0.93130  0.56122  0.62177
EC92   EC   0.93130  0.93878  0.12177
EC93   EC   0.93878  0.12177  0.93130
EC94   EC   0.93878  0.37823  0.43130
EC95   EC   0.93878  0.62177  0.06870
EC96   EC   0.93878  0.87823  0.56870
E1    E   0.00374  0.09149  0.90477
E2    E   0.00374  0.40851  0.40477
E3    E   0.00374  0.59149  0.09523
E4    E   0.00374  0.90851  0.59523
E5    E   0.03061  0.18588  0.40315
E6    E   0.03061  0.31412  0.90315
E7    E   0.03061  0.68588  0.59685
E8    E   0.03061  0.81412  0.09685
E9    E   0.06412  0.21939  0.84685
E10   E   0.06412  0.28061  0.34685
E11   E   0.06412  0.71939  0.15315
E12   E   0.06412  0.78061  0.65315
E13   E   0.09149  0.09523  0.49626
E14   E   0.09149  0.40477  0.99626
E15   E   0.09149  0.59523  0.50374
E16   E   0.09149  0.90477  0.00374
E17   E   0.09523  0.00374  0.59149
E18   E   0.09523  0.49626  0.09149
E19   E   0.09523  0.50374  0.40851
E20   E   0.09523  0.99626  0.90851
E21   E   0.09685  0.03061  0.81412
E22   E   0.09685  0.46939  0.31412
E23   E   0.09685  0.53061  0.18588
E24   E   0.09685  0.96939  0.68588
E25   E   0.09847  0.12500  0.84847
E26   E   0.09847  0.37500  0.34847
E27   E   0.09847  0.62500  0.15153
E28   E   0.09847  0.62500  0.15153
E29   E   0.09847  0.87500  0.65153
E30   E   0.12500  0.15153  0.40153
E31   E   0.12500  0.15153  0.40153
E32   E   0.12500  0.34847  0.90153
E33   E   0.12500  0.65153  0.59847
E34   E   0.12500  0.84847  0.09847
E35   E   0.15153  0.09847  0.62500
E36   E   0.15153  0.40153  0.12500
E37   E   0.15153  0.59847  0.37500
E38   E   0.15153  0.90153  0.87500
E39   E   0.15153  0.09847  0.62500
E40   E   0.15153  0.40153  0.12500
E41   E   0.15153  0.59847  0.37500
E42   E   0.15153  0.90153  0.87500
E43   E   0.15315  0.06412  0.71939
E44   E   0.15315  0.43588  0.21939
E45   E   0.15315  0.56412  0.28061
E46   E   0.15315  0.93588  0.78061
E47   E   0.15477  0.15851  0.75374
E48   E   0.15477  0.34149  0.25374
E49   E   0.15477  0.65851  0.24626
E50   E   0.15477  0.84149  0.74626
E51   E   0.15851  0.24626  0.34523
E52   E   0.15851  0.25374  0.84523
E53   E   0.15851  0.74626  0.65477
E54   E   0.15851  0.75374  0.15477
E55   E   0.18588  0.09685  0.53061
E56   E   0.18588  0.40315  0.03061
E57   E   0.18588  0.59685  0.46939
E58   E   0.18588  0.90315  0.96939
E59   E   0.21939  0.15315  0.43588
E60   E   0.21939  0.34685  0.93588
E61   E   0.21939  0.65315  0.56412
E62   E   0.21939  0.84685  0.06412
E63   E   0.24626  0.15477  0.65851
E64   E   0.24626  0.34523  0.15851
E65   E   0.24626  0.65477  0.34149
E66   E   0.24626  0.84523  0.84149
E67   E   0.25374  0.15477  0.34149
E68   E   0.25374  0.34523  0.84149
E69   E   0.25374  0.65477  0.65851
E70   E   0.25374  0.84523  0.15851
E71   E   0.28061  0.15315  0.56412
E72   E   0.28061  0.34685  0.06412
E73   E   0.28061  0.65315  0.43588
E74   E   0.28061  0.84685  0.93588
E75   E   0.31412  0.09685  0.46939
E76   E   0.31412  0.40315  0.96939
E77   E   0.31412  0.59685  0.53061
E78   E   0.31412  0.90315  0.03061
E79   E   0.34149  0.24626  0.65477
E80   E   0.34149  0.25374  0.15477
E81   E   0.34149  0.74626  0.34523
E82   E   0.34149  0.75374  0.84523
E83   E   0.34523  0.15851  0.24626
E84   E   0.34523  0.34149  0.74626
E85   E   0.34523  0.65851  0.75374
E86   E   0.34523  0.84149  0.25374
E87   E   0.34685  0.06412  0.28061
E88   E   0.34685  0.43588  0.78061
E89   E   0.34685  0.56412  0.71939
E90   E   0.34685  0.93588  0.21939
E91   E   0.34847  0.09847  0.37500
E92   E   0.34847  0.40153  0.87500
E93   E   0.34847  0.59847  0.62500
E94   E   0.34847  0.90153  0.12500
E95   E   0.37500  0.15153  0.59847
E96   E   0.37500  0.15153  0.59847
E97   E   0.37500  0.34847  0.09847
E98   E   0.37500  0.65153  0.40153
E99   E   0.37500  0.84847  0.90153
E100  E   0.40153  0.12500  0.15153
E101  E   0.40153  0.12500  0.15153
E102  E   0.40153  0.37500  0.65153
E103  E   0.40153  0.62500  0.84847
E104  E   0.40153  0.87500  0.34847
E105  E   0.40315  0.03061  0.18588
E106  E   0.40315  0.46939  0.68588
E107  E   0.40315  0.53061  0.81412
E108  E   0.40315  0.96939  0.31412
E109  E   0.40477  0.00374  0.40851
E110  E   0.40477  0.49626  0.90851
E111  E   0.40477  0.50374  0.59149
E112  E   0.40477  0.99626  0.09149
E113  E   0.40851  0.09523  0.50374
E114  E   0.40851  0.40477  0.00374
E115  E   0.40851  0.59523  0.49626
E116  E   0.40851  0.90477  0.99626
E117  E   0.43588  0.21939  0.15315
E118  E   0.43588  0.28061  0.65315
E119  E   0.43588  0.71939  0.84685
E120  E   0.43588  0.78061  0.34685
E121  E   0.46939  0.18588  0.59685
E122  E   0.46939  0.31412  0.09685
E123  E   0.46939  0.68588  0.40315
E124  E   0.46939  0.81412  0.90315
E125  E   0.49626  0.09149  0.09523
E126  E   0.49626  0.40851  0.59523
E127  E   0.49626  0.59149  0.90477
E128  E   0.49626  0.90851  0.40477
E129  E   0.50374  0.09149  0.59523
E130  E   0.50374  0.40851  0.09523
E131  E   0.50374  0.59149  0.40477
E132  E   0.50374  0.90851  0.90477
E133  E   0.53061  0.18588  0.09685
E134  E   0.53061  0.31412  0.59685
E135  E   0.53061  0.68588  0.90315
E136  E   0.53061  0.81412  0.40315
E137  E   0.56412  0.21939  0.65315
E138  E   0.56412  0.28061  0.15315
E139  E   0.56412  0.71939  0.34685
E140  E   0.56412  0.78061  0.84685
E141  E   0.59149  0.09523  0.00374
E142  E   0.59149  0.40477  0.50374
E143  E   0.59149  0.59523  0.99626
E144  E   0.59149  0.90477  0.49626
E145  E   0.59523  0.00374  0.90851
E146  E   0.59523  0.49626  0.40851
E147  E   0.59523  0.50374  0.09149
E148  E   0.59523  0.99626  0.59149
E149  E   0.59685  0.03061  0.68588
E150  E   0.59685  0.46939  0.18588
E151  E   0.59685  0.53061  0.31412
E152  E   0.59685  0.96939  0.81412
E153  E   0.59847  0.12500  0.65153
E154  E   0.59847  0.37500  0.15153
E155  E   0.59847  0.37500  0.15153
E156  E   0.59847  0.62500  0.34847
E157  E   0.59847  0.87500  0.84847
E158  E   0.62500  0.15153  0.09847
E159  E   0.62500  0.15153  0.09847
E160  E   0.62500  0.34847  0.59847
E161  E   0.62500  0.65153  0.90153
E162  E   0.62500  0.84847  0.40153
E163  E   0.65153  0.09847  0.87500
E164  E   0.65153  0.40153  0.37500
E165  E   0.65153  0.59847  0.12500
E166  E   0.65153  0.90153  0.62500
E167  E   0.65315  0.06412  0.78061
E168  E   0.65315  0.43588  0.28061
E169  E   0.65315  0.56412  0.21939
E170  E   0.65315  0.93588  0.71939
E171  E   0.65477  0.15851  0.74626
E172  E   0.65477  0.34149  0.24626
E173  E   0.65477  0.65851  0.25374
E174  E   0.65477  0.84149  0.75374
E175  E   0.65851  0.24626  0.15477
E176  E   0.65851  0.25374  0.65477
E177  E   0.65851  0.74626  0.84523
E178  E   0.65851  0.75374  0.34523
E179  E   0.68588  0.09685  0.96939
E180  E   0.68588  0.40315  0.46939
E181  E   0.68588  0.59685  0.03061
E182  E   0.68588  0.90315  0.53061
E183  E   0.71939  0.15315  0.06412
E184  E   0.71939  0.34685  0.56412
E185  E   0.71939  0.65315  0.93588
E186  E   0.71939  0.84685  0.43588
E187  E   0.74626  0.15477  0.84149
E188  E   0.74626  0.34523  0.34149
E189  E   0.74626  0.65477  0.15851
E190  E   0.74626  0.84523  0.65851
E191  E   0.75374  0.15477  0.15851
E192  E   0.75374  0.34523  0.65851
E193  E   0.75374  0.65477  0.84149
E194  E   0.75374  0.84523  0.34149
E195  E   0.78061  0.15315  0.93588
E196  E   0.78061  0.34685  0.43588
E197  E   0.78061  0.65315  0.06412
E198  E   0.78061  0.84685  0.56412
E199  E   0.81412  0.09685  0.03061
E200  E   0.81412  0.40315  0.53061
E201  E   0.81412  0.59685  0.96939
E202  E   0.81412  0.90315  0.46939
E203  E   0.84149  0.24626  0.84523
E204  E   0.84149  0.25374  0.34523
E205  E   0.84149  0.74626  0.15477
E206  E   0.84149  0.75374  0.65477
E207  E   0.84523  0.15851  0.25374
E208  E   0.84523  0.34149  0.75374
E209  E   0.84523  0.65851  0.74626
E210  E   0.84523  0.84149  0.24626
E211  E   0.84685  0.06412  0.21939
E212  E   0.84685  0.43588  0.71939
E213  E   0.84685  0.56412  0.78061
E214  E   0.84685  0.93588  0.28061
E215  E   0.84847  0.09847  0.12500
E216  E   0.84847  0.40153  0.62500
E217  E   0.84847  0.59847  0.87500
E218  E   0.84847  0.90153  0.37500
E219  E   0.87500  0.15153  0.90153
E220  E   0.87500  0.15153  0.90153
E221  E   0.87500  0.34847  0.40153
E222  E   0.87500  0.65153  0.09847
E223  E   0.87500  0.84847  0.59847
E224  E   0.90153  0.12500  0.34847
E225  E   0.90153  0.37500  0.84847
E226  E   0.90153  0.62500  0.65153
E227  E   0.90153  0.87500  0.15153
E228  E   0.90153  0.87500  0.15153
E229  E   0.90315  0.03061  0.31412
E230  E   0.90315  0.46939  0.81412
E231  E   0.90315  0.53061  0.68588
E232  E   0.90315  0.96939  0.18588
E233  E   0.90477  0.00374  0.09149
E234  E   0.90477  0.49626  0.59149
E235  E   0.90477  0.50374  0.90851
E236  E   0.90477  0.99626  0.40851
E237  E   0.90851  0.09523  0.99626
E238  E   0.90851  0.40477  0.49626
E239  E   0.90851  0.59523  0.00374
E240  E   0.90851  0.90477  0.50374
E241  E   0.93588  0.21939  0.34685
E242  E   0.93588  0.28061  0.84685
E243  E   0.93588  0.71939  0.65315
E244  E   0.93588  0.78061  0.15315
E245  E   0.96939  0.18588  0.90315
E246  E   0.96939  0.31412  0.40315
E247  E   0.96939  0.68588  0.09685
E248  E   0.96939  0.81412  0.59685
E249  E   0.99626  0.09149  0.40477
E250  E   0.99626  0.40851  0.90477
E251  E   0.99626  0.59149  0.59523
E252  E   0.99626  0.90851  0.09523
loop_
