data_bcx_P4332  hall_number: 508, V_con: 4, EC_con: 4
_audit_creation_date              2025-03-06
_audit_creation_method            'MOFbuilder_1.0'
_symmetry_space_group_name_H-M    'P1'
_symmetry_Int_Tables_number       1
_symmetry_cell_setting            triclinic
loop_
_symmetry_equiv_pos_as_xyz
  x,y,z
_cell_length_a                    38.6937
_cell_length_b                    38.6937
_cell_length_c                    38.6937
_cell_angle_alpha                 90.0
_cell_angle_beta                  90.0
_cell_angle_gamma                 90.0
loop_
_atom_site_label
_atom_site_type_symbol
_atom_site_fract_x
_atom_site_fract_y
_atom_site_fract_z
V1    V   0.05040  0.05040  0.05040
V2    V   0.19960  0.19960  0.19960
V3    V   0.30040  0.80040  0.69960
V4    V   0.44960  0.94960  0.55040
V5    V   0.55040  0.44960  0.94960
V6    V   0.69960  0.30040  0.80040
V7    V   0.80040  0.69960  0.30040
V8    V   0.94960  0.55040  0.44960
EC1    EC   0.00421  0.04808  0.79613
EC2    EC   0.04613  0.79808  0.74579
EC3    EC   0.04808  0.79613  0.00421
EC4    EC   0.20192  0.24579  0.45387
EC5    EC   0.20387  0.50421  0.45192
EC6    EC   0.24579  0.45387  0.20192
EC7    EC   0.25421  0.54613  0.70192
EC8    EC   0.29613  0.49579  0.95192
EC9    EC   0.29808  0.75421  0.95387
EC10   EC   0.45192  0.20387  0.50421
EC11   EC   0.45387  0.20192  0.24579
EC12   EC   0.49579  0.95192  0.29613
EC13   EC   0.50421  0.45192  0.20387
EC14   EC   0.54613  0.70192  0.25421
EC15   EC   0.54808  0.70387  0.99579
EC16   EC   0.70192  0.25421  0.54613
EC17   EC   0.70387  0.99579  0.54808
EC18   EC   0.74579  0.04613  0.79808
EC19   EC   0.75421  0.95387  0.29808
EC20   EC   0.79613  0.00421  0.04808
EC21   EC   0.79808  0.74579  0.04613
EC22   EC   0.95192  0.29613  0.49579
EC23   EC   0.95387  0.29808  0.75421
EC24   EC   0.99579  0.54808  0.70387
E1    E   0.02096  0.67308  0.72483
E2    E   0.02517  0.92308  0.77096
E3    E   0.02730  0.04924  0.92326
E4    E   0.04710  0.79710  0.87500
E5    E   0.04710  0.79710  0.87500
E6    E   0.04924  0.92326  0.02730
E7    E   0.07674  0.52730  0.45076
E8    E   0.07692  0.27096  0.47483
E9    E   0.12500  0.12500  0.12500
E10   E   0.12500  0.54710  0.70290
E11   E   0.12500  0.54710  0.70290
E12   E   0.17308  0.77517  0.97904
E13   E   0.17326  0.79924  0.72270
E14   E   0.20076  0.22270  0.32674
E15   E   0.20290  0.37500  0.45290
E16   E   0.20290  0.37500  0.45290
E17   E   0.22270  0.32674  0.20076
E18   E   0.22483  0.47904  0.32692
E19   E   0.22904  0.52517  0.57692
E20   E   0.27096  0.47483  0.07692
E21   E   0.27517  0.52096  0.82692
E22   E   0.27730  0.67326  0.70076
E23   E   0.29710  0.62500  0.95290
E24   E   0.29710  0.62500  0.95290
E25   E   0.29924  0.77730  0.82674
E26   E   0.32674  0.20076  0.22270
E27   E   0.32692  0.22483  0.47904
E28   E   0.37500  0.45290  0.20290
E29   E   0.37500  0.45290  0.20290
E30   E   0.37500  0.87500  0.62500
E31   E   0.42308  0.72904  0.97483
E32   E   0.42326  0.47270  0.95076
E33   E   0.45076  0.07674  0.52730
E34   E   0.45290  0.20290  0.37500
E35   E   0.45290  0.20290  0.37500
E36   E   0.47270  0.95076  0.42326
E37   E   0.47483  0.07692  0.27096
E38   E   0.47904  0.32692  0.22483
E39   E   0.52096  0.82692  0.27517
E40   E   0.52517  0.57692  0.22904
E41   E   0.52730  0.45076  0.07674
E42   E   0.54710  0.70290  0.12500
E43   E   0.54710  0.70290  0.12500
E44   E   0.54924  0.57674  0.97270
E45   E   0.57674  0.97270  0.54924
E46   E   0.57692  0.22904  0.52517
E47   E   0.62500  0.37500  0.87500
E48   E   0.62500  0.95290  0.29710
E49   E   0.62500  0.95290  0.29710
E50   E   0.67308  0.72483  0.02096
E51   E   0.67326  0.70076  0.27730
E52   E   0.70076  0.27730  0.67326
E53   E   0.70290  0.12500  0.54710
E54   E   0.70290  0.12500  0.54710
E55   E   0.72270  0.17326  0.79924
E56   E   0.72483  0.02096  0.67308
E57   E   0.72904  0.97483  0.42308
E58   E   0.77096  0.02517  0.92308
E59   E   0.77517  0.97904  0.17308
E60   E   0.77730  0.82674  0.29924
E61   E   0.79710  0.87500  0.04710
E62   E   0.79710  0.87500  0.04710
E63   E   0.79924  0.72270  0.17326
E64   E   0.82674  0.29924  0.77730
E65   E   0.82692  0.27517  0.52096
E66   E   0.87500  0.04710  0.79710
E67   E   0.87500  0.04710  0.79710
E68   E   0.87500  0.62500  0.37500
E69   E   0.92308  0.77096  0.02517
E70   E   0.92326  0.02730  0.04924
E71   E   0.95076  0.42326  0.47270
E72   E   0.95290  0.29710  0.62500
E73   E   0.95290  0.29710  0.62500
E74   E   0.97270  0.54924  0.57674
E75   E   0.97483  0.42308  0.72904
E76   E   0.97904  0.17308  0.77517
loop_
