data_bpa_Pbcn  hall_number: 284, V_con: 3, EC_con: 3
_audit_creation_date              2025-03-06
_audit_creation_method            'MOFbuilder_1.0'
_symmetry_space_group_name_H-M    'P1'
_symmetry_Int_Tables_number       1
_symmetry_cell_setting            triclinic
loop_
_symmetry_equiv_pos_as_xyz
  x,y,z
_cell_length_a                    23.8388
_cell_length_b                    40.0453
_cell_length_c                    39.7359
_cell_angle_alpha                 90.0
_cell_angle_beta                  90.0
_cell_angle_gamma                 90.0
loop_
_atom_site_label
_atom_site_type_symbol
_atom_site_fract_x
_atom_site_fract_y
_atom_site_fract_z
V1    V   0.09352  0.38886  0.51223
V2    V   0.09352  0.61114  0.01223
V3    V   0.40648  0.11114  0.01223
V4    V   0.40648  0.88886  0.51223
V5    V   0.59352  0.11114  0.48777
V6    V   0.59352  0.88886  0.98777
V7    V   0.90648  0.38886  0.98777
V8    V   0.90648  0.61114  0.48777
EC1    EC   0.09414  0.22232  0.13752
EC2    EC   0.09414  0.77768  0.63752
EC3    EC   0.40586  0.27768  0.63752
EC4    EC   0.40586  0.72232  0.13752
EC5    EC   0.59414  0.27768  0.86248
EC6    EC   0.59414  0.72232  0.36248
EC7    EC   0.90586  0.22232  0.36248
EC8    EC   0.90586  0.77768  0.86248
E1    E   0.00000  0.22232  0.25000
E2    E   0.00000  0.50000  0.00000
E3    E   0.00000  0.50000  0.50000
E4    E   0.00000  0.77768  0.75000
E5    E   0.00031  0.30559  0.06264
E6    E   0.00031  0.69441  0.56264
E7    E   0.24969  0.33327  0.57487
E8    E   0.24969  0.66673  0.07487
E9    E   0.25031  0.16673  0.07487
E10   E   0.25031  0.83327  0.57487
E11   E   0.49969  0.19441  0.56264
E12   E   0.49969  0.80559  0.06264
E13   E   0.50000  0.00000  0.00000
E14   E   0.50000  0.00000  0.50000
E15   E   0.50000  0.27768  0.75000
E16   E   0.50000  0.72232  0.25000
E17   E   0.50031  0.19441  0.93736
E18   E   0.50031  0.80559  0.43736
E19   E   0.74969  0.16673  0.42513
E20   E   0.74969  0.83327  0.92513
E21   E   0.75031  0.33327  0.92513
E22   E   0.75031  0.66673  0.42513
E23   E   0.99969  0.30559  0.43736
E24   E   0.99969  0.69441  0.93736
loop_
