data_bpb_P6522  hall_number: 473, V_con: 3, EC_con: 3
_audit_creation_date              2025-03-06
_audit_creation_method            'MOFbuilder_1.0'
_symmetry_space_group_name_H-M    'P1'
_symmetry_Int_Tables_number       1
_symmetry_cell_setting            triclinic
loop_
_symmetry_equiv_pos_as_xyz
  x,y,z
_cell_length_a                    43.2441
_cell_length_b                    43.2441
_cell_length_c                    18.1671
_cell_angle_alpha                 90.0
_cell_angle_beta                  90.0
_cell_angle_gamma                 120.0
loop_
_atom_site_label
_atom_site_type_symbol
_atom_site_fract_x
_atom_site_fract_y
_atom_site_fract_z
V1    V   0.00000  0.22037  0.66667
V2    V   0.00000  0.77963  0.16667
V3    V   0.22037  0.00000  0.00000
V4    V   0.22037  0.22037  0.83333
V5    V   0.77963  0.00000  0.50000
V6    V   0.77963  0.77963  0.33333
EC1    EC   0.00000  0.45158  0.66667
EC2    EC   0.00000  0.54842  0.16667
EC3    EC   0.45158  0.00000  0.00000
EC4    EC   0.45158  0.45158  0.83333
EC5    EC   0.54842  0.00000  0.50000
EC6    EC   0.54842  0.54842  0.33333
E1    E   0.00000  0.33598  0.66667
E2    E   0.00000  0.50000  0.41667
E3    E   0.00000  0.50000  0.91667
E4    E   0.00000  0.66402  0.16667
E5    E   0.11018  0.22037  0.75000
E6    E   0.11018  0.88981  0.08333
E7    E   0.11019  0.22037  0.75000
E8    E   0.11019  0.88982  0.08334
E9    E   0.22037  0.11018  0.91666
E10   E   0.22037  0.11019  0.91667
E11   E   0.33598  0.00000  0.00000
E12   E   0.33598  0.33598  0.83333
E13   E   0.50000  0.00000  0.25000
E14   E   0.50000  0.00000  0.75000
E15   E   0.50000  0.50000  0.08333
E16   E   0.50000  0.50000  0.08333
E17   E   0.50000  0.50000  0.58333
E18   E   0.50000  0.50000  0.58333
E19   E   0.66402  0.00000  0.50000
E20   E   0.66402  0.66402  0.33333
E21   E   0.77963  0.88981  0.41667
E22   E   0.77963  0.88982  0.41666
E23   E   0.88981  0.11018  0.58334
E24   E   0.88981  0.77963  0.25000
E25   E   0.88982  0.11019  0.58333
E26   E   0.88982  0.77963  0.25000
loop_
