data_bpg_C12/m1  hall_number: 71, V_con: 3, EC_con: 3
_audit_creation_date              2025-03-06
_audit_creation_method            'MOFbuilder_1.0'
_symmetry_space_group_name_H-M    'P1'
_symmetry_Int_Tables_number       1
_symmetry_cell_setting            triclinic
loop_
_symmetry_equiv_pos_as_xyz
  x,y,z
_cell_length_a                    37.634
_cell_length_b                    35.7185
_cell_length_c                    29.8691
_cell_angle_alpha                 90.0
_cell_angle_beta                  108.1055
_cell_angle_gamma                 90.0
loop_
_atom_site_label
_atom_site_type_symbol
_atom_site_fract_x
_atom_site_fract_y
_atom_site_fract_z
V1    V   0.13982  0.22276  0.55466
V2    V   0.13982  0.77724  0.44534
V3    V   0.36018  0.27724  0.94534
V4    V   0.36018  0.72276  0.05466
V5    V   0.63982  0.27724  0.94534
V6    V   0.63982  0.72276  0.05466
V7    V   0.86018  0.22276  0.55466
V8    V   0.86018  0.77724  0.44534
EC1    EC   0.22292  0.14002  0.39095
EC2    EC   0.22292  0.85998  0.60905
EC3    EC   0.27708  0.35998  0.10905
EC4    EC   0.27708  0.64002  0.89095
EC5    EC   0.72292  0.35998  0.10905
EC6    EC   0.72292  0.64002  0.89095
EC7    EC   0.77708  0.14002  0.39095
EC8    EC   0.77708  0.85998  0.60905
E1    E   0.00000  0.22276  0.50000
E2    E   0.00000  0.77724  0.50000
E3    E   0.18137  0.18139  0.22280
E4    E   0.18137  0.81861  0.77720
E5    E   0.22292  0.00000  0.39095
E6    E   0.22292  0.00000  0.60905
E7    E   0.25000  0.25000  0.00000
E8    E   0.25000  0.25000  0.50000
E9    E   0.25000  0.75000  0.00000
E10   E   0.25000  0.75000  0.50000
E11   E   0.27708  0.50000  0.10905
E12   E   0.27708  0.50000  0.89095
E13   E   0.31863  0.31861  0.27720
E14   E   0.31863  0.68139  0.72280
E15   E   0.50000  0.27724  0.00000
E16   E   0.50000  0.72276  0.00000
E17   E   0.68137  0.31861  0.27720
E18   E   0.68137  0.68139  0.72280
E19   E   0.72292  0.50000  0.10905
E20   E   0.72292  0.50000  0.89095
E21   E   0.75000  0.25000  0.00000
E22   E   0.75000  0.25000  0.50000
E23   E   0.75000  0.75000  0.00000
E24   E   0.75000  0.75000  0.50000
E25   E   0.77708  0.00000  0.39095
E26   E   0.77708  0.00000  0.60905
E27   E   0.81863  0.18139  0.22280
E28   E   0.81863  0.81861  0.77720
loop_
