data_bpl_Cmca  hall_number: 304, V_con: 3, EC_con: 3
_audit_creation_date              2025-03-06
_audit_creation_method            'MOFbuilder_1.0'
_symmetry_space_group_name_H-M    'P1'
_symmetry_Int_Tables_number       1
_symmetry_cell_setting            triclinic
loop_
_symmetry_equiv_pos_as_xyz
  x,y,z
_cell_length_a                    35.7076
_cell_length_b                    37.635
_cell_length_c                    56.7964
_cell_angle_alpha                 90.0
_cell_angle_beta                  90.0
_cell_angle_gamma                 90.0
loop_
_atom_site_label
_atom_site_type_symbol
_atom_site_fract_x
_atom_site_fract_y
_atom_site_fract_z
V1    V   0.14006  0.12696  0.19543
V2    V   0.14006  0.37304  0.69543
V3    V   0.14006  0.62696  0.30457
V4    V   0.14006  0.87304  0.80457
V5    V   0.35994  0.12696  0.30457
V6    V   0.35994  0.37304  0.80457
V7    V   0.35994  0.62696  0.19543
V8    V   0.35994  0.87304  0.69543
V9    V   0.64006  0.12696  0.30457
V10   V   0.64006  0.37304  0.80457
V11   V   0.64006  0.62696  0.19543
V12   V   0.64006  0.87304  0.69543
V13   V   0.85994  0.12696  0.19543
V14   V   0.85994  0.37304  0.69543
V15   V   0.85994  0.62696  0.30457
V16   V   0.85994  0.87304  0.80457
EC1    EC   0.22314  0.12630  0.02740
EC2    EC   0.22314  0.37370  0.52740
EC3    EC   0.22314  0.62630  0.47260
EC4    EC   0.22314  0.87370  0.97260
EC5    EC   0.27686  0.12630  0.47260
EC6    EC   0.27686  0.37370  0.97260
EC7    EC   0.27686  0.62630  0.02740
EC8    EC   0.27686  0.87370  0.52740
EC9    EC   0.72314  0.12630  0.47260
EC10   EC   0.72314  0.37370  0.97260
EC11   EC   0.72314  0.62630  0.02740
EC12   EC   0.72314  0.87370  0.52740
EC13   EC   0.77686  0.12630  0.02740
EC14   EC   0.77686  0.37370  0.52740
EC15   EC   0.77686  0.62630  0.47260
EC16   EC   0.77686  0.87370  0.97260
E1    E   0.00000  0.12696  0.19543
E2    E   0.00000  0.37304  0.69543
E3    E   0.00000  0.62696  0.30457
E4    E   0.00000  0.87304  0.80457
E5    E   0.18160  0.12663  0.11142
E6    E   0.18160  0.37337  0.61142
E7    E   0.18160  0.62663  0.38858
E8    E   0.18160  0.87337  0.88858
E9    E   0.22314  0.00000  0.00000
E10   E   0.22314  0.50000  0.50000
E11   E   0.25000  0.12696  0.25000
E12   E   0.25000  0.25000  0.00000
E13   E   0.25000  0.25000  0.50000
E14   E   0.25000  0.37304  0.75000
E15   E   0.25000  0.62696  0.25000
E16   E   0.25000  0.75000  0.00000
E17   E   0.25000  0.75000  0.50000
E18   E   0.25000  0.87304  0.75000
E19   E   0.27686  0.00000  0.50000
E20   E   0.27686  0.50000  0.00000
E21   E   0.31840  0.12663  0.38858
E22   E   0.31840  0.37337  0.88858
E23   E   0.31840  0.62663  0.11142
E24   E   0.31840  0.87337  0.61142
E25   E   0.50000  0.12696  0.30457
E26   E   0.50000  0.37304  0.80457
E27   E   0.50000  0.62696  0.19543
E28   E   0.50000  0.87304  0.69543
E29   E   0.68160  0.12663  0.38858
E30   E   0.68160  0.37337  0.88858
E31   E   0.68160  0.62663  0.11142
E32   E   0.68160  0.87337  0.61142
E33   E   0.72314  0.00000  0.50000
E34   E   0.72314  0.50000  0.00000
E35   E   0.75000  0.12696  0.25000
E36   E   0.75000  0.25000  0.00000
E37   E   0.75000  0.25000  0.50000
E38   E   0.75000  0.37304  0.75000
E39   E   0.75000  0.62696  0.25000
E40   E   0.75000  0.75000  0.00000
E41   E   0.75000  0.75000  0.50000
E42   E   0.75000  0.87304  0.75000
E43   E   0.77686  0.00000  0.00000
E44   E   0.77686  0.50000  0.50000
E45   E   0.81840  0.12663  0.11142
E46   E   0.81840  0.37337  0.61142
E47   E   0.81840  0.62663  0.38858
E48   E   0.81840  0.87337  0.88858
loop_
