data_bpm_Pbcm  hall_number: 269, V_con: 3, EC_con: 3
_audit_creation_date              2025-03-06
_audit_creation_method            'MOFbuilder_1.0'
_symmetry_space_group_name_H-M    'P1'
_symmetry_Int_Tables_number       1
_symmetry_cell_setting            triclinic
loop_
_symmetry_equiv_pos_as_xyz
  x,y,z
_cell_length_a                    29.7799
_cell_length_b                    35.7819
_cell_length_c                    35.599
_cell_angle_alpha                 90.0
_cell_angle_beta                  90.0
_cell_angle_gamma                 90.0
loop_
_atom_site_label
_atom_site_type_symbol
_atom_site_fract_x
_atom_site_fract_y
_atom_site_fract_z
V1    V   0.10024  0.11108  0.51551
V2    V   0.10024  0.11108  0.98449
V3    V   0.10024  0.38892  0.01551
V4    V   0.10024  0.38892  0.48449
V5    V   0.89976  0.61108  0.51551
V6    V   0.89976  0.61108  0.98449
V7    V   0.89976  0.88892  0.01551
V8    V   0.89976  0.88892  0.48449
EC1    EC   0.40019  0.02771  0.60951
EC2    EC   0.40019  0.02771  0.89049
EC3    EC   0.40019  0.47229  0.10951
EC4    EC   0.40019  0.47229  0.39049
EC5    EC   0.59981  0.52771  0.60951
EC6    EC   0.59981  0.52771  0.89049
EC7    EC   0.59981  0.97229  0.10951
EC8    EC   0.59981  0.97229  0.39049
E1    E   0.00000  0.00000  0.00000
E2    E   0.00000  0.00000  0.50000
E3    E   0.00000  0.50000  0.00000
E4    E   0.00000  0.50000  0.50000
E5    E   0.10024  0.25000  0.00000
E6    E   0.10024  0.25000  0.50000
E7    E   0.25021  0.06940  0.56251
E8    E   0.25021  0.06940  0.93749
E9    E   0.25021  0.43060  0.06251
E10   E   0.25021  0.43060  0.43749
E11   E   0.40019  0.02771  0.75000
E12   E   0.40019  0.47229  0.25000
E13   E   0.50000  0.00000  0.00000
E14   E   0.50000  0.00000  0.50000
E15   E   0.50000  0.50000  0.00000
E16   E   0.50000  0.50000  0.50000
E17   E   0.59981  0.52771  0.75000
E18   E   0.59981  0.97229  0.25000
E19   E   0.74979  0.56940  0.56251
E20   E   0.74979  0.56940  0.93749
E21   E   0.74979  0.93060  0.06251
E22   E   0.74979  0.93060  0.43749
E23   E   0.89976  0.75000  0.00000
E24   E   0.89976  0.75000  0.50000
loop_
