data_bps_Ccca:2  hall_number: 325, V_con: 3, EC_con: 3
_audit_creation_date              2025-03-06
_audit_creation_method            'MOFbuilder_1.0'
_symmetry_space_group_name_H-M    'P1'
_symmetry_Int_Tables_number       1
_symmetry_cell_setting            triclinic
loop_
_symmetry_equiv_pos_as_xyz
  x,y,z
_cell_length_a                    31.8363
_cell_length_b                    50.6314
_cell_length_c                    43.0065
_cell_angle_alpha                 90.0
_cell_angle_beta                  90.0
_cell_angle_gamma                 90.0
loop_
_atom_site_label
_atom_site_type_symbol
_atom_site_fract_x
_atom_site_fract_y
_atom_site_fract_z
V1    V   0.10031  0.02986  0.41774
V2    V   0.10031  0.47014  0.91774
V3    V   0.10031  0.52986  0.58226
V4    V   0.10031  0.97014  0.08226
V5    V   0.39969  0.02986  0.08226
V6    V   0.39969  0.47014  0.58226
V7    V   0.39969  0.52986  0.91774
V8    V   0.39969  0.97014  0.41774
V9    V   0.60031  0.02986  0.58226
V10   V   0.60031  0.47014  0.08226
V11   V   0.60031  0.52986  0.41774
V12   V   0.60031  0.97014  0.91774
V13   V   0.89969  0.02986  0.91774
V14   V   0.89969  0.47014  0.41774
V15   V   0.89969  0.52986  0.08226
V16   V   0.89969  0.97014  0.58226
EC1    EC   0.00000  0.15121  0.25000
EC2    EC   0.00000  0.15121  0.75000
EC3    EC   0.00000  0.34879  0.25000
EC4    EC   0.00000  0.34879  0.75000
EC5    EC   0.00000  0.65121  0.25000
EC6    EC   0.00000  0.65121  0.75000
EC7    EC   0.00000  0.84879  0.25000
EC8    EC   0.00000  0.84879  0.75000
EC9    EC   0.50000  0.15121  0.25000
EC10   EC   0.50000  0.15121  0.75000
EC11   EC   0.50000  0.34879  0.25000
EC12   EC   0.50000  0.34879  0.75000
EC13   EC   0.50000  0.65121  0.25000
EC14   EC   0.50000  0.65121  0.75000
EC15   EC   0.50000  0.84879  0.25000
EC16   EC   0.50000  0.84879  0.75000
E1    E   0.00000  0.00000  0.00000
E2    E   0.00000  0.00000  0.50000
E3    E   0.00000  0.25000  0.25000
E4    E   0.00000  0.25000  0.75000
E5    E   0.00000  0.50000  0.00000
E6    E   0.00000  0.50000  0.50000
E7    E   0.00000  0.75000  0.25000
E8    E   0.00000  0.75000  0.75000
E9    E   0.05015  0.09054  0.33387
E10   E   0.05015  0.40946  0.83387
E11   E   0.05015  0.59054  0.66613
E12   E   0.05015  0.90946  0.16613
E13   E   0.25000  0.00000  0.08226
E14   E   0.25000  0.00000  0.41774
E15   E   0.25000  0.50000  0.58226
E16   E   0.25000  0.50000  0.91774
E17   E   0.44985  0.09054  0.16613
E18   E   0.44985  0.40946  0.66613
E19   E   0.44985  0.59054  0.83387
E20   E   0.44985  0.90946  0.33387
E21   E   0.50000  0.00000  0.00000
E22   E   0.50000  0.00000  0.50000
E23   E   0.50000  0.25000  0.25000
E24   E   0.50000  0.25000  0.75000
E25   E   0.50000  0.50000  0.00000
E26   E   0.50000  0.50000  0.50000
E27   E   0.50000  0.75000  0.25000
E28   E   0.50000  0.75000  0.75000
E29   E   0.55015  0.09054  0.66613
E30   E   0.55015  0.40946  0.16613
E31   E   0.55015  0.59054  0.33387
E32   E   0.55015  0.90946  0.83387
E33   E   0.75000  0.00000  0.58226
E34   E   0.75000  0.00000  0.91774
E35   E   0.75000  0.50000  0.08226
E36   E   0.75000  0.50000  0.41774
E37   E   0.94985  0.09054  0.83387
E38   E   0.94985  0.40946  0.33387
E39   E   0.94985  0.59054  0.16613
E40   E   0.94985  0.90946  0.66613
loop_
