data_bwt_Pa-3  hall_number: 501, V_con: 3, EC_con: 3
_audit_creation_date              2025-03-06
_audit_creation_method            'MOFbuilder_1.0'
_symmetry_space_group_name_H-M    'P1'
_symmetry_Int_Tables_number       1
_symmetry_cell_setting            triclinic
loop_
_symmetry_equiv_pos_as_xyz
  x,y,z
_cell_length_a                    39.9999
_cell_length_b                    39.9999
_cell_length_c                    39.9999
_cell_angle_alpha                 90.0
_cell_angle_beta                  90.0
_cell_angle_gamma                 90.0
loop_
_atom_site_label
_atom_site_type_symbol
_atom_site_fract_x
_atom_site_fract_y
_atom_site_fract_z
V1    V   0.00450  0.74971  0.21650
V2    V   0.00450  0.75029  0.71650
V3    V   0.21650  0.00450  0.74971
V4    V   0.21650  0.49550  0.24971
V5    V   0.24971  0.21650  0.49550
V6    V   0.24971  0.28350  0.99550
V7    V   0.25029  0.71650  0.49550
V8    V   0.25029  0.78350  0.99550
V9    V   0.28350  0.50450  0.74971
V10   V   0.28350  0.99550  0.24971
V11   V   0.49550  0.24971  0.21650
V12   V   0.49550  0.25029  0.71650
V13   V   0.50450  0.74971  0.28350
V14   V   0.50450  0.75029  0.78350
V15   V   0.71650  0.00450  0.75029
V16   V   0.71650  0.49550  0.25029
V17   V   0.74971  0.21650  0.00450
V18   V   0.74971  0.28350  0.50450
V19   V   0.75029  0.71650  0.00450
V20   V   0.75029  0.78350  0.50450
V21   V   0.78350  0.50450  0.75029
V22   V   0.78350  0.99550  0.25029
V23   V   0.99550  0.24971  0.28350
V24   V   0.99550  0.25029  0.78350
EC1    EC   0.00424  0.74998  0.46650
EC2    EC   0.00424  0.75002  0.96650
EC3    EC   0.03350  0.50424  0.74998
EC4    EC   0.03350  0.99576  0.24998
EC5    EC   0.24998  0.03350  0.99576
EC6    EC   0.24998  0.46650  0.49576
EC7    EC   0.25002  0.53350  0.99576
EC8    EC   0.25002  0.96650  0.49576
EC9    EC   0.46650  0.00424  0.74998
EC10   EC   0.46650  0.49576  0.24998
EC11   EC   0.49576  0.24998  0.46650
EC12   EC   0.49576  0.25002  0.96650
EC13   EC   0.50424  0.74998  0.03350
EC14   EC   0.50424  0.75002  0.53350
EC15   EC   0.53350  0.50424  0.75002
EC16   EC   0.53350  0.99576  0.25002
EC17   EC   0.74998  0.03350  0.50424
EC18   EC   0.74998  0.46650  0.00424
EC19   EC   0.75002  0.53350  0.50424
EC20   EC   0.75002  0.96650  0.00424
EC21   EC   0.96650  0.00424  0.75002
EC22   EC   0.96650  0.49576  0.25002
EC23   EC   0.99576  0.24998  0.03350
EC24   EC   0.99576  0.25002  0.53350
E1    E   0.00437  0.74985  0.34150
E2    E   0.00437  0.74986  0.09150
E3    E   0.00437  0.75014  0.59150
E4    E   0.00437  0.75015  0.84150
E5    E   0.01900  0.62727  0.73324
E6    E   0.01900  0.87273  0.23324
E7    E   0.09150  0.00437  0.74986
E8    E   0.09150  0.49563  0.24986
E9    E   0.12727  0.73324  0.48100
E10   E   0.12727  0.76676  0.98100
E11   E   0.15850  0.50437  0.74985
E12   E   0.15850  0.99563  0.24985
E13   E   0.23324  0.01900  0.87273
E14   E   0.23324  0.48100  0.37273
E15   E   0.24985  0.15850  0.99563
E16   E   0.24985  0.34150  0.49563
E17   E   0.24986  0.09150  0.49563
E18   E   0.24986  0.40850  0.99563
E19   E   0.25014  0.59150  0.49563
E20   E   0.25014  0.90850  0.99563
E21   E   0.25015  0.65850  0.99563
E22   E   0.25015  0.84150  0.49563
E23   E   0.26676  0.51900  0.87273
E24   E   0.26676  0.98100  0.37273
E25   E   0.34150  0.00437  0.74985
E26   E   0.34150  0.49563  0.24985
E27   E   0.37273  0.23324  0.48100
E28   E   0.37273  0.26676  0.98100
E29   E   0.40850  0.50437  0.74986
E30   E   0.40850  0.99563  0.24986
E31   E   0.48100  0.12727  0.73324
E32   E   0.48100  0.37273  0.23324
E33   E   0.49563  0.24985  0.34150
E34   E   0.49563  0.24986  0.09150
E35   E   0.49563  0.25014  0.59150
E36   E   0.49563  0.25015  0.84150
E37   E   0.50437  0.74985  0.15850
E38   E   0.50437  0.74986  0.40850
E39   E   0.50437  0.75014  0.90850
E40   E   0.50437  0.75015  0.65850
E41   E   0.51900  0.62727  0.76676
E42   E   0.51900  0.87273  0.26676
E43   E   0.59150  0.00437  0.75014
E44   E   0.59150  0.49563  0.25014
E45   E   0.62727  0.73324  0.01900
E46   E   0.62727  0.76676  0.51900
E47   E   0.65850  0.50437  0.75015
E48   E   0.65850  0.99563  0.25015
E49   E   0.73324  0.01900  0.62727
E50   E   0.73324  0.48100  0.12727
E51   E   0.74985  0.15850  0.50437
E52   E   0.74985  0.34150  0.00437
E53   E   0.74986  0.09150  0.00437
E54   E   0.74986  0.40850  0.50437
E55   E   0.75014  0.59150  0.00437
E56   E   0.75014  0.90850  0.50437
E57   E   0.75015  0.65850  0.50437
E58   E   0.75015  0.84150  0.00437
E59   E   0.76676  0.51900  0.62727
E60   E   0.76676  0.98100  0.12727
E61   E   0.84150  0.00437  0.75015
E62   E   0.84150  0.49563  0.25015
E63   E   0.87273  0.23324  0.01900
E64   E   0.87273  0.26676  0.51900
E65   E   0.90850  0.50437  0.75014
E66   E   0.90850  0.99563  0.25014
E67   E   0.98100  0.12727  0.76676
E68   E   0.98100  0.37273  0.26676
E69   E   0.99563  0.24985  0.15850
E70   E   0.99563  0.24986  0.40850
E71   E   0.99563  0.25014  0.90850
E72   E   0.99563  0.25015  0.65850
loop_
