data_cal_I4/mcm  hall_number: 425, V_con: 15, EC_con: 10
_audit_creation_date              2025-03-06
_audit_creation_method            'MOFbuilder_1.0'
_symmetry_space_group_name_H-M    'P1'
_symmetry_Int_Tables_number       1
_symmetry_cell_setting            triclinic
loop_
_symmetry_equiv_pos_as_xyz
  x,y,z
_cell_length_a                    20.916
_cell_length_b                    20.916
_cell_length_c                    17.6569
_cell_angle_alpha                 90.0
_cell_angle_beta                  90.0
_cell_angle_gamma                 90.0
loop_
_atom_site_label
_atom_site_type_symbol
_atom_site_fract_x
_atom_site_fract_y
_atom_site_fract_z
V1    V   0.15416  0.34584  0.50000
V2    V   0.15416  0.65416  0.00000
V3    V   0.15416  0.34584  0.50000
V4    V   0.15416  0.65416  0.00000
V5    V   0.34584  0.15416  0.00000
V6    V   0.34584  0.84584  0.50000
V7    V   0.34584  0.15416  0.00000
V8    V   0.34584  0.84584  0.50000
V9    V   0.65416  0.15416  0.50000
V10   V   0.65416  0.84584  0.00000
V11   V   0.65416  0.15416  0.50000
V12   V   0.65416  0.84584  0.00000
V13   V   0.84584  0.34584  0.00000
V14   V   0.84584  0.65416  0.50000
V15   V   0.84584  0.34584  0.00000
V16   V   0.84584  0.65416  0.50000
EC1    EC   0.00000  0.00000  0.25000
EC2    EC   0.00000  0.00000  0.75000
EC3    EC   0.50000  0.50000  0.25000
EC4    EC   0.50000  0.50000  0.75000
E1    E   0.00000  0.00000  0.00000
E2    E   0.00000  0.00000  0.50000
E3    E   0.00000  0.34584  0.25000
E4    E   0.00000  0.34584  0.75000
E5    E   0.00000  0.50000  0.00000
E6    E   0.00000  0.50000  0.50000
E7    E   0.00000  0.65416  0.25000
E8    E   0.00000  0.65416  0.75000
E9    E   0.07708  0.17292  0.37500
E10   E   0.07708  0.17292  0.62500
E11   E   0.07708  0.82708  0.12500
E12   E   0.07708  0.82708  0.87500
E13   E   0.09584  0.25000  0.00000
E14   E   0.09584  0.75000  0.50000
E15   E   0.15416  0.50000  0.25000
E16   E   0.15416  0.50000  0.75000
E17   E   0.17292  0.07708  0.12500
E18   E   0.17292  0.07708  0.87500
E19   E   0.17292  0.92292  0.37500
E20   E   0.17292  0.92292  0.62500
E21   E   0.25000  0.09584  0.50000
E22   E   0.25000  0.25000  0.25000
E23   E   0.25000  0.25000  0.75000
E24   E   0.25000  0.40416  0.00000
E25   E   0.25000  0.59584  0.50000
E26   E   0.25000  0.75000  0.25000
E27   E   0.25000  0.75000  0.75000
E28   E   0.25000  0.90416  0.00000
E29   E   0.32708  0.42292  0.37500
E30   E   0.32708  0.42292  0.62500
E31   E   0.32708  0.57708  0.12500
E32   E   0.32708  0.57708  0.87500
E33   E   0.34584  0.00000  0.25000
E34   E   0.34584  0.00000  0.75000
E35   E   0.40416  0.25000  0.50000
E36   E   0.40416  0.75000  0.00000
E37   E   0.42292  0.32708  0.12500
E38   E   0.42292  0.32708  0.87500
E39   E   0.42292  0.67292  0.37500
E40   E   0.42292  0.67292  0.62500
E41   E   0.50000  0.00000  0.00000
E42   E   0.50000  0.00000  0.50000
E43   E   0.50000  0.15416  0.25000
E44   E   0.50000  0.15416  0.75000
E45   E   0.50000  0.50000  0.00000
E46   E   0.50000  0.50000  0.50000
E47   E   0.50000  0.84584  0.25000
E48   E   0.50000  0.84584  0.75000
E49   E   0.57708  0.32708  0.37500
E50   E   0.57708  0.32708  0.62500
E51   E   0.57708  0.67292  0.12500
E52   E   0.57708  0.67292  0.87500
E53   E   0.59584  0.25000  0.00000
E54   E   0.59584  0.75000  0.50000
E55   E   0.65416  0.00000  0.25000
E56   E   0.65416  0.00000  0.75000
E57   E   0.67292  0.42292  0.12500
E58   E   0.67292  0.42292  0.87500
E59   E   0.67292  0.57708  0.37500
E60   E   0.67292  0.57708  0.62500
E61   E   0.75000  0.09584  0.00000
E62   E   0.75000  0.25000  0.25000
E63   E   0.75000  0.25000  0.75000
E64   E   0.75000  0.40416  0.50000
E65   E   0.75000  0.59584  0.00000
E66   E   0.75000  0.75000  0.25000
E67   E   0.75000  0.75000  0.75000
E68   E   0.75000  0.90416  0.50000
E69   E   0.82708  0.07708  0.37500
E70   E   0.82708  0.07708  0.62500
E71   E   0.82708  0.92292  0.12500
E72   E   0.82708  0.92292  0.87500
E73   E   0.84584  0.50000  0.25000
E74   E   0.84584  0.50000  0.75000
E75   E   0.90416  0.25000  0.50000
E76   E   0.90416  0.75000  0.00000
E77   E   0.92292  0.17292  0.12500
E78   E   0.92292  0.17292  0.87500
E79   E   0.92292  0.82708  0.37500
E80   E   0.92292  0.82708  0.62500
loop_
