data_cds-f_P42/mmc  hall_number: 412, V_con: 5
_audit_creation_date              2025-03-06
_audit_creation_method            'MOFbuilder_1.0'
_symmetry_space_group_name_H-M    'P1'
_symmetry_Int_Tables_number       1
_symmetry_cell_setting            triclinic
loop_
_symmetry_equiv_pos_as_xyz
  x,y,z
_cell_length_a                    20.0
_cell_length_b                    20.0
_cell_length_c                    39.9999
_cell_angle_alpha                 90.0
_cell_angle_beta                  90.0
_cell_angle_gamma                 90.0
loop_
_atom_site_label
_atom_site_type_symbol
_atom_site_fract_x
_atom_site_fract_y
_atom_site_fract_z
V1    V   0.25000  0.25000  0.12500
V2    V   0.25000  0.25000  0.37500
V3    V   0.25000  0.25000  0.62500
V4    V   0.25000  0.25000  0.87500
V5    V   0.25000  0.75000  0.12500
V6    V   0.25000  0.75000  0.37500
V7    V   0.25000  0.75000  0.62500
V8    V   0.25000  0.75000  0.87500
V9    V   0.75000  0.25000  0.12500
V10   V   0.75000  0.25000  0.37500
V11   V   0.75000  0.25000  0.62500
V12   V   0.75000  0.25000  0.87500
V13   V   0.75000  0.75000  0.12500
V14   V   0.75000  0.75000  0.37500
V15   V   0.75000  0.75000  0.62500
V16   V   0.75000  0.75000  0.87500
E1    E   0.00000  0.25000  0.12500
E2    E   0.00000  0.25000  0.87500
E3    E   0.00000  0.75000  0.12500
E4    E   0.00000  0.75000  0.87500
E5    E   0.25000  0.00000  0.37500
E6    E   0.25000  0.00000  0.62500
E7    E   0.25000  0.25000  0.00000
E8    E   0.25000  0.25000  0.25000
E9    E   0.25000  0.25000  0.50000
E10   E   0.25000  0.25000  0.75000
E11   E   0.25000  0.50000  0.12500
E12   E   0.25000  0.50000  0.37500
E13   E   0.25000  0.50000  0.62500
E14   E   0.25000  0.50000  0.87500
E15   E   0.25000  0.75000  0.00000
E16   E   0.25000  0.75000  0.25000
E17   E   0.25000  0.75000  0.50000
E18   E   0.25000  0.75000  0.75000
E19   E   0.50000  0.25000  0.12500
E20   E   0.50000  0.25000  0.37500
E21   E   0.50000  0.25000  0.62500
E22   E   0.50000  0.25000  0.87500
E23   E   0.50000  0.75000  0.12500
E24   E   0.50000  0.75000  0.37500
E25   E   0.50000  0.75000  0.62500
E26   E   0.50000  0.75000  0.87500
E27   E   0.75000  0.00000  0.37500
E28   E   0.75000  0.00000  0.62500
E29   E   0.75000  0.25000  0.00000
E30   E   0.75000  0.25000  0.25000
E31   E   0.75000  0.25000  0.50000
E32   E   0.75000  0.25000  0.75000
E33   E   0.75000  0.50000  0.12500
E34   E   0.75000  0.50000  0.37500
E35   E   0.75000  0.50000  0.62500
E36   E   0.75000  0.50000  0.87500
E37   E   0.75000  0.75000  0.00000
E38   E   0.75000  0.75000  0.25000
E39   E   0.75000  0.75000  0.50000
E40   E   0.75000  0.75000  0.75000
loop_
