data_cen_P6/mmm  hall_number: 485, V_con: 12, EC_con: 4
_audit_creation_date              2025-03-06
_audit_creation_method            'MOFbuilder_1.0'
_symmetry_space_group_name_H-M    'P1'
_symmetry_Int_Tables_number       1
_symmetry_cell_setting            triclinic
loop_
_symmetry_equiv_pos_as_xyz
  x,y,z
_cell_length_a                    15.5969
_cell_length_b                    15.5969
_cell_length_c                    18.7063
_cell_angle_alpha                 90.0
_cell_angle_beta                  90.0
_cell_angle_gamma                 120.0
loop_
_atom_site_label
_atom_site_type_symbol
_atom_site_fract_x
_atom_site_fract_y
_atom_site_fract_z
V1    V   0.00000  0.00000  0.00000
EC1    EC   0.33333  0.66666  0.23171
EC2    EC   0.33333  0.66666  0.76829
EC3    EC   0.33333  0.66667  0.23171
EC4    EC   0.33333  0.66667  0.76829
EC5    EC   0.33334  0.66667  0.23171
EC6    EC   0.33334  0.66667  0.76829
EC7    EC   0.66666  0.33333  0.23171
EC8    EC   0.66666  0.33333  0.76829
EC9    EC   0.66667  0.33333  0.23171
EC10   EC   0.66667  0.33333  0.76829
EC11   EC   0.66667  0.33334  0.23171
EC12   EC   0.66667  0.33334  0.76829
E1    E   0.16667  0.33334  0.11586
E2    E   0.16667  0.33334  0.88414
E3    E   0.16667  0.83333  0.11586
E4    E   0.16667  0.83333  0.88414
E5    E   0.33333  0.66666  0.50000
E6    E   0.33333  0.66667  0.50000
E7    E   0.33334  0.66667  0.50000
E8    E   0.33334  0.16667  0.11586
E9    E   0.33334  0.16667  0.88414
E10   E   0.66666  0.33333  0.50000
E11   E   0.66666  0.83333  0.11586
E12   E   0.66666  0.83333  0.88414
E13   E   0.66667  0.33333  0.50000
E14   E   0.66667  0.33334  0.50000
E15   E   0.83333  0.16667  0.11586
E16   E   0.83333  0.16667  0.88414
E17   E   0.83333  0.66666  0.11586
E18   E   0.83333  0.66666  0.88414
loop_
