data_cla-d_I-43m  hall_number: 513, V_con: 15, EC_con: 12
_audit_creation_date              2025-03-06
_audit_creation_method            'MOFbuilder_1.0'
_symmetry_space_group_name_H-M    'P1'
_symmetry_Int_Tables_number       1
_symmetry_cell_setting            triclinic
loop_
_symmetry_equiv_pos_as_xyz
  x,y,z
_cell_length_a                    20.6563
_cell_length_b                    20.6563
_cell_length_c                    20.6563
_cell_angle_alpha                 90.0
_cell_angle_beta                  90.0
_cell_angle_gamma                 90.0
loop_
_atom_site_label
_atom_site_type_symbol
_atom_site_fract_x
_atom_site_fract_y
_atom_site_fract_z
V1    V   0.18430  0.18430  0.81570
V2    V   0.18430  0.81570  0.18430
V3    V   0.31570  0.31570  0.31570
V4    V   0.31570  0.68430  0.68430
V5    V   0.68430  0.31570  0.68430
V6    V   0.68430  0.68430  0.31570
V7    V   0.81570  0.18430  0.18430
V8    V   0.81570  0.81570  0.81570
EC1    EC   0.00000  0.00000  0.50000
EC2    EC   0.00000  0.50000  0.00000
EC3    EC   0.00000  0.50000  0.50000
EC4    EC   0.50000  0.00000  0.00000
EC5    EC   0.50000  0.00000  0.50000
EC6    EC   0.50000  0.50000  0.00000
E1    E   0.00000  0.00000  0.18430
E2    E   0.00000  0.00000  0.81570
E3    E   0.00000  0.18430  0.00000
E4    E   0.00000  0.25000  0.50000
E5    E   0.00000  0.50000  0.25000
E6    E   0.00000  0.50000  0.75000
E7    E   0.00000  0.75000  0.50000
E8    E   0.00000  0.81570  0.00000
E9    E   0.06570  0.25000  0.25000
E10   E   0.06570  0.75000  0.75000
E11   E   0.09215  0.09215  0.65785
E12   E   0.09215  0.34215  0.90785
E13   E   0.09215  0.65785  0.09215
E14   E   0.09215  0.90785  0.34215
E15   E   0.09215  0.34215  0.65785
E16   E   0.09215  0.65785  0.34215
E17   E   0.15785  0.15785  0.40785
E18   E   0.15785  0.40785  0.15785
E19   E   0.15785  0.40785  0.40785
E20   E   0.15785  0.59215  0.59215
E21   E   0.15785  0.59215  0.84215
E22   E   0.15785  0.84215  0.59215
E23   E   0.18430  0.00000  0.00000
E24   E   0.25000  0.00000  0.50000
E25   E   0.25000  0.06570  0.25000
E26   E   0.25000  0.25000  0.06570
E27   E   0.25000  0.25000  0.56570
E28   E   0.25000  0.43430  0.75000
E29   E   0.25000  0.50000  0.00000
E30   E   0.25000  0.56570  0.25000
E31   E   0.25000  0.75000  0.43430
E32   E   0.25000  0.75000  0.93430
E33   E   0.25000  0.93430  0.75000
E34   E   0.31570  0.50000  0.50000
E35   E   0.34215  0.09215  0.90785
E36   E   0.34215  0.09215  0.65785
E37   E   0.34215  0.34215  0.90785
E38   E   0.34215  0.65785  0.09215
E39   E   0.34215  0.90785  0.09215
E40   E   0.34215  0.90785  0.34215
E41   E   0.40785  0.15785  0.15785
E42   E   0.40785  0.15785  0.40785
E43   E   0.40785  0.40785  0.15785
E44   E   0.40785  0.59215  0.84215
E45   E   0.40785  0.84215  0.59215
E46   E   0.40785  0.84215  0.84215
E47   E   0.43430  0.25000  0.75000
E48   E   0.43430  0.75000  0.25000
E49   E   0.50000  0.00000  0.25000
E50   E   0.50000  0.00000  0.75000
E51   E   0.50000  0.25000  0.00000
E52   E   0.50000  0.31570  0.50000
E53   E   0.50000  0.50000  0.31570
E54   E   0.50000  0.50000  0.68430
E55   E   0.50000  0.68430  0.50000
E56   E   0.50000  0.75000  0.00000
E57   E   0.56570  0.25000  0.25000
E58   E   0.56570  0.75000  0.75000
E59   E   0.59215  0.15785  0.59215
E60   E   0.59215  0.15785  0.84215
E61   E   0.59215  0.40785  0.84215
E62   E   0.59215  0.59215  0.15785
E63   E   0.59215  0.84215  0.15785
E64   E   0.59215  0.84215  0.40785
E65   E   0.65785  0.09215  0.09215
E66   E   0.65785  0.09215  0.34215
E67   E   0.65785  0.34215  0.09215
E68   E   0.65785  0.65785  0.90785
E69   E   0.65785  0.90785  0.65785
E70   E   0.65785  0.90785  0.90785
E71   E   0.68430  0.50000  0.50000
E72   E   0.75000  0.00000  0.50000
E73   E   0.75000  0.06570  0.75000
E74   E   0.75000  0.25000  0.43430
E75   E   0.75000  0.25000  0.93430
E76   E   0.75000  0.43430  0.25000
E77   E   0.75000  0.50000  0.00000
E78   E   0.75000  0.56570  0.75000
E79   E   0.75000  0.75000  0.06570
E80   E   0.75000  0.75000  0.56570
E81   E   0.75000  0.93430  0.25000
E82   E   0.81570  0.00000  0.00000
E83   E   0.84215  0.15785  0.59215
E84   E   0.84215  0.40785  0.59215
E85   E   0.84215  0.40785  0.84215
E86   E   0.84215  0.59215  0.15785
E87   E   0.84215  0.59215  0.40785
E88   E   0.84215  0.84215  0.40785
E89   E   0.90785  0.09215  0.34215
E90   E   0.90785  0.34215  0.09215
E91   E   0.90785  0.34215  0.34215
E92   E   0.90785  0.65785  0.65785
E93   E   0.90785  0.65785  0.90785
E94   E   0.90785  0.90785  0.65785
E95   E   0.93430  0.25000  0.75000
E96   E   0.93430  0.75000  0.25000
loop_
