data_cys-a_P4332  hall_number: 508, V_con: 3, EC_con: 3
_audit_creation_date              2025-03-06
_audit_creation_method            'MOFbuilder_1.0'
_symmetry_space_group_name_H-M    'P1'
_symmetry_Int_Tables_number       1
_symmetry_cell_setting            triclinic
loop_
_symmetry_equiv_pos_as_xyz
  x,y,z
_cell_length_a                    68.8951
_cell_length_b                    68.8951
_cell_length_c                    68.8951
_cell_angle_alpha                 90.0
_cell_angle_beta                  90.0
_cell_angle_gamma                 90.0
loop_
_atom_site_label
_atom_site_type_symbol
_atom_site_fract_x
_atom_site_fract_y
_atom_site_fract_z
V1    V   0.00459  0.81784  0.31784
V2    V   0.06784  0.75459  0.43216
V3    V   0.06784  0.93216  0.25459
V4    V   0.18216  0.81784  0.49541
V5    V   0.18216  0.99541  0.31784
V6    V   0.24541  0.93216  0.43216
V7    V   0.25459  0.06784  0.93216
V8    V   0.31784  0.00459  0.81784
V9    V   0.31784  0.18216  0.99541
V10   V   0.43216  0.06784  0.75459
V11   V   0.43216  0.24541  0.93216
V12   V   0.49541  0.18216  0.81784
V13   V   0.50459  0.68216  0.68216
V14   V   0.56784  0.56784  0.74541
V15   V   0.56784  0.74541  0.56784
V16   V   0.68216  0.50459  0.68216
V17   V   0.68216  0.68216  0.50459
V18   V   0.74541  0.56784  0.56784
V19   V   0.75459  0.43216  0.06784
V20   V   0.81784  0.31784  0.00459
V21   V   0.81784  0.49541  0.18216
V22   V   0.93216  0.25459  0.06784
V23   V   0.93216  0.43216  0.24541
V24   V   0.99541  0.31784  0.18216
EC1    EC   0.02857  0.14659  0.07825
EC2    EC   0.07825  0.02857  0.14659
EC3    EC   0.10341  0.22143  0.17175
EC4    EC   0.14659  0.07825  0.02857
EC5    EC   0.17175  0.10341  0.22143
EC6    EC   0.22143  0.17175  0.10341
EC7    EC   0.27857  0.82825  0.60341
EC8    EC   0.32825  0.89659  0.72143
EC9    EC   0.35341  0.92175  0.52857
EC10   EC   0.39659  0.77857  0.67175
EC11   EC   0.42175  0.97143  0.64659
EC12   EC   0.47143  0.85341  0.57825
EC13   EC   0.52857  0.35341  0.92175
EC14   EC   0.57825  0.47143  0.85341
EC15   EC   0.60341  0.27857  0.82825
EC16   EC   0.64659  0.42175  0.97143
EC17   EC   0.67175  0.39659  0.77857
EC18   EC   0.72143  0.32825  0.89659
EC19   EC   0.77857  0.67175  0.39659
EC20   EC   0.82825  0.60341  0.27857
EC21   EC   0.85341  0.57825  0.47143
EC22   EC   0.89659  0.72143  0.32825
EC23   EC   0.92175  0.52857  0.35341
EC24   EC   0.97143  0.64659  0.42175
E1    E   0.01964  0.70059  0.42695
E2    E   0.03622  0.87500  0.28622
E3    E   0.03622  0.78622  0.37500
E4    E   0.03622  0.78622  0.37500
E5    E   0.03622  0.87500  0.28622
E6    E   0.04941  0.26964  0.17695
E7    E   0.05341  0.08758  0.11242
E8    E   0.07305  0.98036  0.20059
E9    E   0.08758  0.11242  0.05341
E10   E   0.11242  0.05341  0.08758
E11   E   0.12500  0.78622  0.46378
E12   E   0.12500  0.78622  0.46378
E13   E   0.12500  0.96378  0.28622
E14   E   0.12500  0.96378  0.28622
E15   E   0.13758  0.16242  0.19659
E16   E   0.16242  0.19659  0.13758
E17   E   0.17695  0.04941  0.26964
E18   E   0.19659  0.13758  0.16242
E19   E   0.20059  0.07305  0.98036
E20   E   0.21378  0.87500  0.46378
E21   E   0.21378  0.96378  0.37500
E22   E   0.21378  0.87500  0.46378
E23   E   0.21378  0.96378  0.37500
E24   E   0.23036  0.82305  0.54941
E25   E   0.26964  0.17695  0.04941
E26   E   0.28622  0.03622  0.87500
E27   E   0.28622  0.12500  0.96378
E28   E   0.28622  0.03622  0.87500
E29   E   0.28622  0.12500  0.96378
E30   E   0.29941  0.92695  0.48036
E31   E   0.30341  0.86242  0.66242
E32   E   0.32305  0.95059  0.76964
E33   E   0.33758  0.80341  0.63758
E34   E   0.36242  0.83758  0.69659
E35   E   0.37500  0.03622  0.78622
E36   E   0.37500  0.03622  0.78622
E37   E   0.37500  0.21378  0.96378
E38   E   0.37500  0.21378  0.96378
E39   E   0.38758  0.94659  0.58758
E40   E   0.41242  0.88758  0.55341
E41   E   0.42695  0.01964  0.70059
E42   E   0.44659  0.91242  0.61242
E43   E   0.45059  0.73036  0.67695
E44   E   0.46378  0.12500  0.78622
E45   E   0.46378  0.21378  0.87500
E46   E   0.46378  0.21378  0.87500
E47   E   0.46378  0.12500  0.78622
E48   E   0.48036  0.29941  0.92695
E49   E   0.51964  0.79941  0.57305
E50   E   0.53622  0.62500  0.71378
E51   E   0.53622  0.71378  0.62500
E52   E   0.53622  0.62500  0.71378
E53   E   0.53622  0.71378  0.62500
E54   E   0.54941  0.23036  0.82305
E55   E   0.55341  0.41242  0.88758
E56   E   0.57305  0.51964  0.79941
E57   E   0.58758  0.38758  0.94659
E58   E   0.61242  0.44659  0.91242
E59   E   0.62500  0.53622  0.71378
E60   E   0.62500  0.53622  0.71378
E61   E   0.62500  0.71378  0.53622
E62   E   0.62500  0.71378  0.53622
E63   E   0.63758  0.33758  0.80341
E64   E   0.66242  0.30341  0.86242
E65   E   0.67695  0.45059  0.73036
E66   E   0.69659  0.36242  0.83758
E67   E   0.70059  0.42695  0.01964
E68   E   0.71378  0.53622  0.62500
E69   E   0.71378  0.62500  0.53622
E70   E   0.71378  0.62500  0.53622
E71   E   0.71378  0.53622  0.62500
E72   E   0.73036  0.67695  0.45059
E73   E   0.76964  0.32305  0.95059
E74   E   0.78622  0.46378  0.12500
E75   E   0.78622  0.37500  0.03622
E76   E   0.78622  0.37500  0.03622
E77   E   0.78622  0.46378  0.12500
E78   E   0.79941  0.57305  0.51964
E79   E   0.80341  0.63758  0.33758
E80   E   0.82305  0.54941  0.23036
E81   E   0.83758  0.69659  0.36242
E82   E   0.86242  0.66242  0.30341
E83   E   0.87500  0.28622  0.03622
E84   E   0.87500  0.28622  0.03622
E85   E   0.87500  0.46378  0.21378
E86   E   0.87500  0.46378  0.21378
E87   E   0.88758  0.55341  0.41242
E88   E   0.91242  0.61242  0.44659
E89   E   0.92695  0.48036  0.29941
E90   E   0.94659  0.58758  0.38758
E91   E   0.95059  0.76964  0.32305
E92   E   0.96378  0.28622  0.12500
E93   E   0.96378  0.28622  0.12500
E94   E   0.96378  0.37500  0.21378
E95   E   0.96378  0.37500  0.21378
E96   E   0.98036  0.20059  0.07305
loop_
