data_ddc_Pm-3  hall_number: 494, V_con: 4, EC_con: 3
_audit_creation_date              2025-03-06
_audit_creation_method            'MOFbuilder_1.0'
_symmetry_space_group_name_H-M    'P1'
_symmetry_Int_Tables_number       1
_symmetry_cell_setting            triclinic
loop_
_symmetry_equiv_pos_as_xyz
  x,y,z
_cell_length_a                    37.9129
_cell_length_b                    37.9129
_cell_length_c                    37.9129
_cell_angle_alpha                 90.0
_cell_angle_beta                  90.0
_cell_angle_gamma                 90.0
loop_
_atom_site_label
_atom_site_type_symbol
_atom_site_fract_x
_atom_site_fract_y
_atom_site_fract_z
V1    V   0.00000  0.13188  0.36812
V2    V   0.00000  0.13188  0.63188
V3    V   0.00000  0.86812  0.36812
V4    V   0.00000  0.86812  0.63188
V5    V   0.13188  0.36812  0.00000
V6    V   0.13188  0.63188  0.00000
V7    V   0.36812  0.00000  0.13188
V8    V   0.36812  0.00000  0.86812
V9    V   0.63188  0.00000  0.13188
V10   V   0.63188  0.00000  0.86812
V11   V   0.86812  0.36812  0.00000
V12   V   0.86812  0.63188  0.00000
EC1    EC   0.16666  0.16666  0.16666
EC2    EC   0.16666  0.16666  0.83334
EC3    EC   0.16666  0.83334  0.16666
EC4    EC   0.16666  0.83334  0.83334
EC5    EC   0.83334  0.16666  0.16666
EC6    EC   0.83334  0.16666  0.83334
EC7    EC   0.83334  0.83334  0.16666
EC8    EC   0.83334  0.83334  0.83334
E1    E   0.00000  0.00000  0.36812
E2    E   0.00000  0.00000  0.63188
E3    E   0.00000  0.13188  0.50000
E4    E   0.00000  0.36812  0.00000
E5    E   0.00000  0.63188  0.00000
E6    E   0.00000  0.86812  0.50000
E7    E   0.08333  0.14927  0.26739
E8    E   0.08333  0.14927  0.73261
E9    E   0.08333  0.85073  0.26739
E10   E   0.08333  0.85073  0.73261
E11   E   0.13188  0.50000  0.00000
E12   E   0.14927  0.26739  0.08333
E13   E   0.14927  0.26739  0.91667
E14   E   0.14927  0.73261  0.08333
E15   E   0.14927  0.73261  0.91667
E16   E   0.26739  0.08333  0.14927
E17   E   0.26739  0.08333  0.85073
E18   E   0.26739  0.91667  0.14927
E19   E   0.26739  0.91667  0.85073
E20   E   0.36812  0.00000  0.00000
E21   E   0.50000  0.00000  0.13188
E22   E   0.50000  0.00000  0.86812
E23   E   0.63188  0.00000  0.00000
E24   E   0.73261  0.08333  0.14927
E25   E   0.73261  0.08333  0.85073
E26   E   0.73261  0.91667  0.14927
E27   E   0.73261  0.91667  0.85073
E28   E   0.85073  0.26739  0.08333
E29   E   0.85073  0.26739  0.91667
E30   E   0.85073  0.73261  0.08333
E31   E   0.85073  0.73261  0.91667
E32   E   0.86812  0.50000  0.00000
E33   E   0.91667  0.14927  0.26739
E34   E   0.91667  0.14927  0.73261
E35   E   0.91667  0.85073  0.26739
E36   E   0.91667  0.85073  0.73261
loop_
