data_dei_I41/amd:2  hall_number: 427, V_con: 4
_audit_creation_date              2025-03-06
_audit_creation_method            'MOFbuilder_1.0'
_symmetry_space_group_name_H-M    'P1'
_symmetry_Int_Tables_number       1
_symmetry_cell_setting            triclinic
loop_
_symmetry_equiv_pos_as_xyz
  x,y,z
_cell_length_a                    37.1634
_cell_length_b                    37.1634
_cell_length_c                    60.535
_cell_angle_alpha                 90.0
_cell_angle_beta                  90.0
_cell_angle_gamma                 90.0
loop_
_atom_site_label
_atom_site_type_symbol
_atom_site_fract_x
_atom_site_fract_y
_atom_site_fract_z
V1    V   0.13454  0.11546  0.79240
V2    V   0.13454  0.11546  0.95760
V3    V   0.13454  0.38454  0.79240
V4    V   0.13454  0.38454  0.95760
V5    V   0.13454  0.61546  0.04240
V6    V   0.13454  0.61546  0.20760
V7    V   0.13454  0.88454  0.04240
V8    V   0.13454  0.88454  0.20760
V9    V   0.36546  0.11546  0.54240
V10   V   0.36546  0.38454  0.54240
V11   V   0.36546  0.61546  0.45760
V12   V   0.36546  0.88454  0.45760
V13   V   0.36546  0.11546  0.70760
V14   V   0.36546  0.38454  0.70760
V15   V   0.36546  0.61546  0.29240
V16   V   0.36546  0.88454  0.29240
V17   V   0.63454  0.11546  0.70760
V18   V   0.63454  0.11546  0.54240
V19   V   0.63454  0.38454  0.54240
V20   V   0.63454  0.38454  0.70760
V21   V   0.63454  0.61546  0.29240
V22   V   0.63454  0.61546  0.45760
V23   V   0.63454  0.88454  0.29240
V24   V   0.63454  0.88454  0.45760
V25   V   0.86546  0.11546  0.79240
V26   V   0.86546  0.11546  0.95760
V27   V   0.86546  0.38454  0.79240
V28   V   0.86546  0.38454  0.95760
V29   V   0.86546  0.61546  0.04240
V30   V   0.86546  0.61546  0.20760
V31   V   0.86546  0.88454  0.04240
V32   V   0.86546  0.88454  0.20760
E1    E   0.00000  0.11546  0.79240
E2    E   0.00000  0.11546  0.95760
E3    E   0.00000  0.38454  0.79240
E4    E   0.00000  0.38454  0.95760
E5    E   0.00000  0.61546  0.04240
E6    E   0.00000  0.61546  0.20760
E7    E   0.00000  0.88454  0.04240
E8    E   0.00000  0.88454  0.20760
E9    E   0.13454  0.00000  0.00000
E10   E   0.13454  0.11546  0.87500
E11   E   0.13454  0.11546  0.87500
E12   E   0.13454  0.25000  0.79240
E13   E   0.13454  0.25000  0.95760
E14   E   0.13454  0.38454  0.87500
E15   E   0.13454  0.50000  0.00000
E16   E   0.13454  0.61546  0.12500
E17   E   0.13454  0.75000  0.04240
E18   E   0.13454  0.75000  0.20760
E19   E   0.13454  0.88454  0.12500
E20   E   0.25000  0.11546  0.75000
E21   E   0.25000  0.38454  0.75000
E22   E   0.25000  0.61546  0.25000
E23   E   0.25000  0.88454  0.25000
E24   E   0.36546  0.00000  0.50000
E25   E   0.36546  0.11546  0.62500
E26   E   0.36546  0.25000  0.54240
E27   E   0.36546  0.38454  0.62500
E28   E   0.36546  0.50000  0.50000
E29   E   0.36546  0.61546  0.37500
E30   E   0.36546  0.75000  0.45760
E31   E   0.36546  0.88454  0.37500
E32   E   0.36546  0.11546  0.62500
E33   E   0.36546  0.25000  0.70760
E34   E   0.36546  0.38454  0.62500
E35   E   0.36546  0.61546  0.37500
E36   E   0.36546  0.75000  0.29240
E37   E   0.36546  0.88454  0.37500
E38   E   0.50000  0.11546  0.70760
E39   E   0.50000  0.11546  0.54240
E40   E   0.50000  0.38454  0.54240
E41   E   0.50000  0.38454  0.70760
E42   E   0.50000  0.61546  0.29240
E43   E   0.50000  0.61546  0.45760
E44   E   0.50000  0.88454  0.29240
E45   E   0.50000  0.88454  0.45760
E46   E   0.63454  0.00000  0.50000
E47   E   0.63454  0.11546  0.62500
E48   E   0.63454  0.11546  0.62500
E49   E   0.63454  0.25000  0.54240
E50   E   0.63454  0.25000  0.70760
E51   E   0.63454  0.38454  0.62500
E52   E   0.63454  0.50000  0.50000
E53   E   0.63454  0.61546  0.37500
E54   E   0.63454  0.75000  0.29240
E55   E   0.63454  0.75000  0.45760
E56   E   0.63454  0.88454  0.37500
E57   E   0.75000  0.11546  0.75000
E58   E   0.75000  0.38454  0.75000
E59   E   0.75000  0.61546  0.25000
E60   E   0.75000  0.88454  0.25000
E61   E   0.86546  0.00000  0.00000
E62   E   0.86546  0.11546  0.87500
E63   E   0.86546  0.11546  0.87500
E64   E   0.86546  0.25000  0.79240
E65   E   0.86546  0.25000  0.95760
E66   E   0.86546  0.38454  0.87500
E67   E   0.86546  0.50000  0.00000
E68   E   0.86546  0.61546  0.12500
E69   E   0.86546  0.75000  0.04240
E70   E   0.86546  0.75000  0.20760
E71   E   0.86546  0.88454  0.12500
loop_
