data_dni-d_I432  hall_number: 507, V_con: 24, EC_con: 3
_audit_creation_date              2025-03-06
_audit_creation_method            'MOFbuilder_1.0'
_symmetry_space_group_name_H-M    'P1'
_symmetry_Int_Tables_number       1
_symmetry_cell_setting            triclinic
loop_
_symmetry_equiv_pos_as_xyz
  x,y,z
_cell_length_a                    22.2096
_cell_length_b                    22.2096
_cell_length_c                    22.2096
_cell_angle_alpha                 90.0
_cell_angle_beta                  90.0
_cell_angle_gamma                 90.0
loop_
_atom_site_label
_atom_site_type_symbol
_atom_site_fract_x
_atom_site_fract_y
_atom_site_fract_z
V1    V   0.00000  0.00000  0.00000
V2    V   0.50000  0.50000  0.50000
EC1    EC   0.15445  0.25000  0.34555
EC2    EC   0.15445  0.34555  0.75000
EC3    EC   0.15445  0.65445  0.25000
EC4    EC   0.15445  0.75000  0.65445
EC5    EC   0.15445  0.25000  0.34555
EC6    EC   0.15445  0.34555  0.75000
EC7    EC   0.15445  0.65445  0.25000
EC8    EC   0.15445  0.75000  0.65445
EC9    EC   0.25000  0.15445  0.65445
EC10   EC   0.25000  0.15445  0.65445
EC11   EC   0.25000  0.34555  0.15445
EC12   EC   0.25000  0.34555  0.15445
EC13   EC   0.25000  0.65445  0.84555
EC14   EC   0.25000  0.84555  0.34555
EC15   EC   0.34555  0.15445  0.25000
EC16   EC   0.34555  0.15445  0.25000
EC17   EC   0.34555  0.25000  0.84555
EC18   EC   0.34555  0.75000  0.15445
EC19   EC   0.34555  0.75000  0.15445
EC20   EC   0.34555  0.84555  0.75000
EC21   EC   0.65445  0.15445  0.75000
EC22   EC   0.65445  0.15445  0.75000
EC23   EC   0.65445  0.25000  0.15445
EC24   EC   0.65445  0.25000  0.15445
EC25   EC   0.65445  0.75000  0.84555
EC26   EC   0.65445  0.84555  0.25000
EC27   EC   0.75000  0.15445  0.34555
EC28   EC   0.75000  0.15445  0.34555
EC29   EC   0.75000  0.34555  0.84555
EC30   EC   0.75000  0.65445  0.15445
EC31   EC   0.75000  0.65445  0.15445
EC32   EC   0.75000  0.84555  0.65445
EC33   EC   0.84555  0.25000  0.65445
EC34   EC   0.84555  0.34555  0.25000
EC35   EC   0.84555  0.65445  0.75000
EC36   EC   0.84555  0.75000  0.34555
E1    E   0.00000  0.25000  0.50000
E2    E   0.00000  0.50000  0.25000
E3    E   0.00000  0.50000  0.75000
E4    E   0.00000  0.75000  0.50000
E5    E   0.07722  0.12500  0.17278
E6    E   0.07722  0.17278  0.87500
E7    E   0.07722  0.82722  0.12500
E8    E   0.07722  0.87500  0.82722
E9    E   0.12500  0.07722  0.82722
E10   E   0.12500  0.17278  0.07722
E11   E   0.12500  0.82722  0.92278
E12   E   0.12500  0.92278  0.17278
E13   E   0.17278  0.07722  0.12500
E14   E   0.17278  0.12500  0.92278
E15   E   0.17278  0.87500  0.07722
E16   E   0.17278  0.92278  0.87500
E17   E   0.25000  0.00000  0.50000
E18   E   0.25000  0.50000  0.00000
E19   E   0.32722  0.37500  0.42278
E20   E   0.32722  0.42278  0.62500
E21   E   0.32722  0.57722  0.37500
E22   E   0.32722  0.62500  0.57722
E23   E   0.37500  0.32722  0.57722
E24   E   0.37500  0.42278  0.32722
E25   E   0.37500  0.57722  0.67278
E26   E   0.37500  0.67278  0.42278
E27   E   0.42278  0.32722  0.37500
E28   E   0.42278  0.37500  0.67278
E29   E   0.42278  0.62500  0.32722
E30   E   0.42278  0.67278  0.62500
E31   E   0.50000  0.00000  0.25000
E32   E   0.50000  0.00000  0.75000
E33   E   0.50000  0.25000  0.00000
E34   E   0.50000  0.75000  0.00000
E35   E   0.57722  0.32722  0.62500
E36   E   0.57722  0.37500  0.32722
E37   E   0.57722  0.62500  0.67278
E38   E   0.57722  0.67278  0.37500
E39   E   0.62500  0.32722  0.42278
E40   E   0.62500  0.42278  0.67278
E41   E   0.62500  0.57722  0.32722
E42   E   0.62500  0.67278  0.57722
E43   E   0.67278  0.37500  0.57722
E44   E   0.67278  0.42278  0.37500
E45   E   0.67278  0.57722  0.62500
E46   E   0.67278  0.62500  0.42278
E47   E   0.75000  0.00000  0.50000
E48   E   0.75000  0.50000  0.00000
E49   E   0.82722  0.07722  0.87500
E50   E   0.82722  0.12500  0.07722
E51   E   0.82722  0.87500  0.92278
E52   E   0.82722  0.92278  0.12500
E53   E   0.87500  0.07722  0.17278
E54   E   0.87500  0.17278  0.92278
E55   E   0.87500  0.82722  0.07722
E56   E   0.87500  0.92278  0.82722
E57   E   0.92278  0.12500  0.82722
E58   E   0.92278  0.17278  0.12500
E59   E   0.92278  0.82722  0.87500
E60   E   0.92278  0.87500  0.17278
loop_
