data_ech_Pa-3  hall_number: 501, V_con: 8
_audit_creation_date              2025-03-06
_audit_creation_method            'MOFbuilder_1.0'
_symmetry_space_group_name_H-M    'P1'
_symmetry_Int_Tables_number       1
_symmetry_cell_setting            triclinic
loop_
_symmetry_equiv_pos_as_xyz
  x,y,z
_cell_length_a                    28.2843
_cell_length_b                    28.2843
_cell_length_c                    28.2843
_cell_angle_alpha                 90.0
_cell_angle_beta                  90.0
_cell_angle_gamma                 90.0
loop_
_atom_site_label
_atom_site_type_symbol
_atom_site_fract_x
_atom_site_fract_y
_atom_site_fract_z
V1    V   0.07942  0.63361  0.30419
V2    V   0.07942  0.86639  0.80419
V3    V   0.13361  0.19581  0.92058
V4    V   0.13361  0.30419  0.42058
V5    V   0.19581  0.57942  0.63361
V6    V   0.19581  0.92058  0.13361
V7    V   0.30419  0.07942  0.63361
V8    V   0.30419  0.42058  0.13361
V9    V   0.36639  0.69581  0.92058
V10   V   0.36639  0.80419  0.42058
V11   V   0.42058  0.13361  0.30419
V12   V   0.42058  0.36639  0.80419
V13   V   0.57942  0.63361  0.19581
V14   V   0.57942  0.86639  0.69581
V15   V   0.63361  0.19581  0.57942
V16   V   0.63361  0.30419  0.07942
V17   V   0.69581  0.57942  0.86639
V18   V   0.69581  0.92058  0.36639
V19   V   0.80419  0.07942  0.86639
V20   V   0.80419  0.42058  0.36639
V21   V   0.86639  0.69581  0.57942
V22   V   0.86639  0.80419  0.07942
V23   V   0.92058  0.13361  0.19581
V24   V   0.92058  0.36639  0.69581
E1    E   0.02710  0.16471  0.05820
E2    E   0.02710  0.21890  0.30820
E3    E   0.02710  0.28110  0.80820
E4    E   0.02710  0.33529  0.55820
E5    E   0.03110  0.63761  0.60651
E6    E   0.03110  0.86239  0.10651
E7    E   0.05820  0.02710  0.16471
E8    E   0.05820  0.47290  0.66471
E9    E   0.10651  0.03110  0.86239
E10   E   0.10651  0.46890  0.36239
E11   E   0.13761  0.60651  0.46890
E12   E   0.13761  0.72290  0.71890
E13   E   0.13761  0.77710  0.21890
E14   E   0.13761  0.89349  0.96890
E15   E   0.16471  0.05820  0.02710
E16   E   0.16471  0.44180  0.52710
E17   E   0.19180  0.52710  0.21890
E18   E   0.19180  0.97290  0.71890
E19   E   0.21890  0.13761  0.77710
E20   E   0.21890  0.19180  0.52710
E21   E   0.21890  0.30820  0.02710
E22   E   0.21890  0.36239  0.27710
E23   E   0.22290  0.71890  0.36239
E24   E   0.22290  0.78110  0.86239
E25   E   0.27710  0.21890  0.36239
E26   E   0.27710  0.28110  0.86239
E27   E   0.28110  0.63761  0.77710
E28   E   0.28110  0.69180  0.52710
E29   E   0.28110  0.80820  0.02710
E30   E   0.28110  0.86239  0.27710
E31   E   0.30820  0.02710  0.21890
E32   E   0.30820  0.47290  0.71890
E33   E   0.33529  0.55820  0.02710
E34   E   0.33529  0.94180  0.52710
E35   E   0.36239  0.10651  0.46890
E36   E   0.36239  0.22290  0.71890
E37   E   0.36239  0.27710  0.21890
E38   E   0.36239  0.39349  0.96890
E39   E   0.39349  0.53110  0.86239
E40   E   0.39349  0.96890  0.36239
E41   E   0.44180  0.52710  0.16471
E42   E   0.44180  0.97290  0.66471
E43   E   0.46890  0.13761  0.60651
E44   E   0.46890  0.36239  0.10651
E45   E   0.47290  0.66471  0.05820
E46   E   0.47290  0.71890  0.30820
E47   E   0.47290  0.78110  0.80820
E48   E   0.47290  0.83529  0.55820
E49   E   0.52710  0.16471  0.44180
E50   E   0.52710  0.21890  0.19180
E51   E   0.52710  0.28110  0.69180
E52   E   0.52710  0.33529  0.94180
E53   E   0.53110  0.63761  0.89349
E54   E   0.53110  0.86239  0.39349
E55   E   0.55820  0.02710  0.33529
E56   E   0.55820  0.47290  0.83529
E57   E   0.60651  0.03110  0.63761
E58   E   0.60651  0.46890  0.13761
E59   E   0.63761  0.60651  0.03110
E60   E   0.63761  0.72290  0.78110
E61   E   0.63761  0.77710  0.28110
E62   E   0.63761  0.89349  0.53110
E63   E   0.66471  0.05820  0.47290
E64   E   0.66471  0.44180  0.97290
E65   E   0.69180  0.52710  0.28110
E66   E   0.69180  0.97290  0.78110
E67   E   0.71890  0.13761  0.72290
E68   E   0.71890  0.19180  0.97290
E69   E   0.71890  0.30820  0.47290
E70   E   0.71890  0.36239  0.22290
E71   E   0.72290  0.71890  0.13761
E72   E   0.72290  0.78110  0.63761
E73   E   0.77710  0.21890  0.13761
E74   E   0.77710  0.28110  0.63761
E75   E   0.78110  0.63761  0.72290
E76   E   0.78110  0.69180  0.97290
E77   E   0.78110  0.80820  0.47290
E78   E   0.78110  0.86239  0.22290
E79   E   0.80820  0.02710  0.28110
E80   E   0.80820  0.47290  0.78110
E81   E   0.83529  0.55820  0.47290
E82   E   0.83529  0.94180  0.97290
E83   E   0.86239  0.10651  0.03110
E84   E   0.86239  0.22290  0.78110
E85   E   0.86239  0.27710  0.28110
E86   E   0.86239  0.39349  0.53110
E87   E   0.89349  0.53110  0.63761
E88   E   0.89349  0.96890  0.13761
E89   E   0.94180  0.52710  0.33529
E90   E   0.94180  0.97290  0.83529
E91   E   0.96890  0.13761  0.89349
E92   E   0.96890  0.36239  0.39349
E93   E   0.97290  0.66471  0.44180
E94   E   0.97290  0.71890  0.19180
E95   E   0.97290  0.78110  0.69180
E96   E   0.97290  0.83529  0.94180
loop_
