data_etj_P42/nnm:2  hall_number: 417, V_con: 3, EC_con: 3
_audit_creation_date              2025-03-06
_audit_creation_method            'MOFbuilder_1.0'
_symmetry_space_group_name_H-M    'P1'
_symmetry_Int_Tables_number       1
_symmetry_cell_setting            triclinic
loop_
_symmetry_equiv_pos_as_xyz
  x,y,z
_cell_length_a                    33.7658
_cell_length_b                    33.7658
_cell_length_c                    39.1838
_cell_angle_alpha                 90.0
_cell_angle_beta                  90.0
_cell_angle_gamma                 90.0
loop_
_atom_site_label
_atom_site_type_symbol
_atom_site_fract_x
_atom_site_fract_y
_atom_site_fract_z
V1    V   0.10192  0.25000  0.25000
V2    V   0.25000  0.10192  0.75000
V3    V   0.25000  0.39808  0.75000
V4    V   0.39808  0.25000  0.25000
V5    V   0.60192  0.75000  0.75000
V6    V   0.75000  0.60192  0.25000
V7    V   0.75000  0.89808  0.25000
V8    V   0.89808  0.75000  0.75000
EC1    EC   0.03161  0.53161  0.87835
EC2    EC   0.03161  0.96839  0.62165
EC3    EC   0.03161  0.53161  0.87835
EC4    EC   0.03161  0.96839  0.62165
EC5    EC   0.46839  0.53161  0.62165
EC6    EC   0.46839  0.96839  0.87835
EC7    EC   0.53161  0.03161  0.12165
EC8    EC   0.53161  0.03161  0.12165
EC9    EC   0.53161  0.46839  0.37835
EC10   EC   0.96839  0.03161  0.37835
EC11   EC   0.96839  0.03161  0.37835
EC12   EC   0.96839  0.46839  0.12165
E1    E   0.00000  0.00000  0.50000
E2    E   0.00000  0.50000  0.00000
E3    E   0.03516  0.14081  0.31417
E4    E   0.03516  0.35919  0.18583
E5    E   0.14081  0.03516  0.68583
E6    E   0.14081  0.46484  0.81417
E7    E   0.25000  0.25000  0.25000
E8    E   0.25000  0.25000  0.75000
E9    E   0.35919  0.03516  0.81417
E10   E   0.35919  0.46484  0.68583
E11   E   0.46484  0.14081  0.18583
E12   E   0.46484  0.35919  0.31417
E13   E   0.50000  0.00000  0.00000
E14   E   0.50000  0.50000  0.50000
E15   E   0.53516  0.64081  0.68583
E16   E   0.53516  0.85919  0.81417
E17   E   0.64081  0.53516  0.31417
E18   E   0.64081  0.96484  0.18583
E19   E   0.75000  0.75000  0.25000
E20   E   0.75000  0.75000  0.75000
E21   E   0.85919  0.53516  0.18583
E22   E   0.85919  0.96484  0.31417
E23   E   0.96484  0.64081  0.81417
E24   E   0.96484  0.85919  0.68583
loop_
