data_etk_Fm-3c  hall_number: 524, V_con: 3, EC_con: 3
_audit_creation_date              2025-03-06
_audit_creation_method            'MOFbuilder_1.0'
_symmetry_space_group_name_H-M    'P1'
_symmetry_Int_Tables_number       1
_symmetry_cell_setting            triclinic
loop_
_symmetry_equiv_pos_as_xyz
  x,y,z
_cell_length_a                    91.9887
_cell_length_b                    91.9887
_cell_length_c                    91.9887
_cell_angle_alpha                 90.0
_cell_angle_beta                  90.0
_cell_angle_gamma                 90.0
loop_
_atom_site_label
_atom_site_type_symbol
_atom_site_fract_x
_atom_site_fract_y
_atom_site_fract_z
V1    V   0.11361  0.11361  0.11361
V2    V   0.11361  0.11361  0.38639
V3    V   0.11361  0.11361  0.61361
V4    V   0.11361  0.11361  0.88639
V5    V   0.11361  0.38639  0.11361
V6    V   0.11361  0.38639  0.38639
V7    V   0.11361  0.38639  0.61361
V8    V   0.11361  0.38639  0.88639
V9    V   0.11361  0.61361  0.11361
V10   V   0.11361  0.61361  0.38639
V11   V   0.11361  0.61361  0.61361
V12   V   0.11361  0.61361  0.88639
V13   V   0.11361  0.88639  0.11361
V14   V   0.11361  0.88639  0.38639
V15   V   0.11361  0.88639  0.61361
V16   V   0.11361  0.88639  0.88639
V17   V   0.38639  0.11361  0.11361
V18   V   0.38639  0.11361  0.38639
V19   V   0.38639  0.11361  0.61361
V20   V   0.38639  0.11361  0.88639
V21   V   0.38639  0.38639  0.11361
V22   V   0.38639  0.38639  0.38639
V23   V   0.38639  0.38639  0.61361
V24   V   0.38639  0.38639  0.88639
V25   V   0.38639  0.61361  0.11361
V26   V   0.38639  0.61361  0.38639
V27   V   0.38639  0.61361  0.61361
V28   V   0.38639  0.61361  0.88639
V29   V   0.38639  0.88639  0.11361
V30   V   0.38639  0.88639  0.38639
V31   V   0.38639  0.88639  0.61361
V32   V   0.38639  0.88639  0.88639
V33   V   0.61361  0.11361  0.11361
V34   V   0.61361  0.11361  0.38639
V35   V   0.61361  0.11361  0.61361
V36   V   0.61361  0.11361  0.88639
V37   V   0.61361  0.38639  0.11361
V38   V   0.61361  0.38639  0.38639
V39   V   0.61361  0.38639  0.61361
V40   V   0.61361  0.38639  0.88639
V41   V   0.61361  0.61361  0.11361
V42   V   0.61361  0.61361  0.38639
V43   V   0.61361  0.61361  0.61361
V44   V   0.61361  0.61361  0.88639
V45   V   0.61361  0.88639  0.11361
V46   V   0.61361  0.88639  0.38639
V47   V   0.61361  0.88639  0.61361
V48   V   0.61361  0.88639  0.88639
V49   V   0.88639  0.11361  0.11361
V50   V   0.88639  0.11361  0.38639
V51   V   0.88639  0.11361  0.61361
V52   V   0.88639  0.11361  0.88639
V53   V   0.88639  0.38639  0.11361
V54   V   0.88639  0.38639  0.38639
V55   V   0.88639  0.38639  0.61361
V56   V   0.88639  0.38639  0.88639
V57   V   0.88639  0.61361  0.11361
V58   V   0.88639  0.61361  0.38639
V59   V   0.88639  0.61361  0.61361
V60   V   0.88639  0.61361  0.88639
V61   V   0.88639  0.88639  0.11361
V62   V   0.88639  0.88639  0.38639
V63   V   0.88639  0.88639  0.61361
V64   V   0.88639  0.88639  0.88639
EC1    EC   0.05435  0.08631  0.20056
EC2    EC   0.05435  0.08631  0.79944
EC3    EC   0.05435  0.20056  0.41369
EC4    EC   0.05435  0.20056  0.58631
EC5    EC   0.05435  0.29944  0.08631
EC6    EC   0.05435  0.29944  0.91369
EC7    EC   0.05435  0.41369  0.29944
EC8    EC   0.05435  0.41369  0.70056
EC9    EC   0.05435  0.58631  0.29944
EC10   EC   0.05435  0.58631  0.70056
EC11   EC   0.05435  0.70056  0.08631
EC12   EC   0.05435  0.70056  0.91369
EC13   EC   0.05435  0.79944  0.41369
EC14   EC   0.05435  0.79944  0.58631
EC15   EC   0.05435  0.91369  0.20056
EC16   EC   0.05435  0.91369  0.79944
EC17   EC   0.08631  0.05435  0.29944
EC18   EC   0.08631  0.05435  0.70056
EC19   EC   0.08631  0.20056  0.05435
EC20   EC   0.08631  0.20056  0.94565
EC21   EC   0.08631  0.29944  0.44565
EC22   EC   0.08631  0.29944  0.55435
EC23   EC   0.08631  0.44565  0.20056
EC24   EC   0.08631  0.44565  0.79944
EC25   EC   0.08631  0.55435  0.20056
EC26   EC   0.08631  0.55435  0.79944
EC27   EC   0.08631  0.70056  0.44565
EC28   EC   0.08631  0.70056  0.55435
EC29   EC   0.08631  0.79944  0.05435
EC30   EC   0.08631  0.79944  0.94565
EC31   EC   0.08631  0.94565  0.29944
EC32   EC   0.08631  0.94565  0.70056
EC33   EC   0.20056  0.05435  0.08631
EC34   EC   0.20056  0.05435  0.91369
EC35   EC   0.20056  0.08631  0.44565
EC36   EC   0.20056  0.08631  0.55435
EC37   EC   0.20056  0.41369  0.05435
EC38   EC   0.20056  0.41369  0.94565
EC39   EC   0.20056  0.44565  0.41369
EC40   EC   0.20056  0.44565  0.58631
EC41   EC   0.20056  0.55435  0.41369
EC42   EC   0.20056  0.55435  0.58631
EC43   EC   0.20056  0.58631  0.05435
EC44   EC   0.20056  0.58631  0.94565
EC45   EC   0.20056  0.91369  0.44565
EC46   EC   0.20056  0.91369  0.55435
EC47   EC   0.20056  0.94565  0.08631
EC48   EC   0.20056  0.94565  0.91369
EC49   EC   0.29944  0.05435  0.41369
EC50   EC   0.29944  0.05435  0.58631
EC51   EC   0.29944  0.08631  0.05435
EC52   EC   0.29944  0.08631  0.94565
EC53   EC   0.29944  0.41369  0.44565
EC54   EC   0.29944  0.41369  0.55435
EC55   EC   0.29944  0.44565  0.08631
EC56   EC   0.29944  0.44565  0.91369
EC57   EC   0.29944  0.55435  0.08631
EC58   EC   0.29944  0.55435  0.91369
EC59   EC   0.29944  0.58631  0.44565
EC60   EC   0.29944  0.58631  0.55435
EC61   EC   0.29944  0.91369  0.05435
EC62   EC   0.29944  0.91369  0.94565
EC63   EC   0.29944  0.94565  0.41369
EC64   EC   0.29944  0.94565  0.58631
EC65   EC   0.41369  0.05435  0.20056
EC66   EC   0.41369  0.05435  0.79944
EC67   EC   0.41369  0.20056  0.44565
EC68   EC   0.41369  0.20056  0.55435
EC69   EC   0.41369  0.29944  0.05435
EC70   EC   0.41369  0.29944  0.94565
EC71   EC   0.41369  0.44565  0.29944
EC72   EC   0.41369  0.44565  0.70056
EC73   EC   0.41369  0.55435  0.29944
EC74   EC   0.41369  0.55435  0.70056
EC75   EC   0.41369  0.70056  0.05435
EC76   EC   0.41369  0.70056  0.94565
EC77   EC   0.41369  0.79944  0.44565
EC78   EC   0.41369  0.79944  0.55435
EC79   EC   0.41369  0.94565  0.20056
EC80   EC   0.41369  0.94565  0.79944
EC81   EC   0.44565  0.08631  0.29944
EC82   EC   0.44565  0.08631  0.70056
EC83   EC   0.44565  0.20056  0.08631
EC84   EC   0.44565  0.20056  0.91369
EC85   EC   0.44565  0.29944  0.41369
EC86   EC   0.44565  0.29944  0.58631
EC87   EC   0.44565  0.41369  0.20056
EC88   EC   0.44565  0.41369  0.79944
EC89   EC   0.44565  0.58631  0.20056
EC90   EC   0.44565  0.58631  0.79944
EC91   EC   0.44565  0.70056  0.41369
EC92   EC   0.44565  0.70056  0.58631
EC93   EC   0.44565  0.79944  0.08631
EC94   EC   0.44565  0.79944  0.91369
EC95   EC   0.44565  0.91369  0.29944
EC96   EC   0.44565  0.91369  0.70056
EC97   EC   0.55435  0.08631  0.29944
EC98   EC   0.55435  0.08631  0.70056
EC99   EC   0.55435  0.20056  0.08631
EC100  EC   0.55435  0.20056  0.91369
EC101  EC   0.55435  0.29944  0.41369
EC102  EC   0.55435  0.29944  0.58631
EC103  EC   0.55435  0.41369  0.20056
EC104  EC   0.55435  0.41369  0.79944
EC105  EC   0.55435  0.58631  0.20056
EC106  EC   0.55435  0.58631  0.79944
EC107  EC   0.55435  0.70056  0.41369
EC108  EC   0.55435  0.70056  0.58631
EC109  EC   0.55435  0.79944  0.08631
EC110  EC   0.55435  0.79944  0.91369
EC111  EC   0.55435  0.91369  0.29944
EC112  EC   0.55435  0.91369  0.70056
EC113  EC   0.58631  0.05435  0.20056
EC114  EC   0.58631  0.05435  0.79944
EC115  EC   0.58631  0.20056  0.44565
EC116  EC   0.58631  0.20056  0.55435
EC117  EC   0.58631  0.29944  0.05435
EC118  EC   0.58631  0.29944  0.94565
EC119  EC   0.58631  0.44565  0.29944
EC120  EC   0.58631  0.44565  0.70056
EC121  EC   0.58631  0.55435  0.29944
EC122  EC   0.58631  0.55435  0.70056
EC123  EC   0.58631  0.70056  0.05435
EC124  EC   0.58631  0.70056  0.94565
EC125  EC   0.58631  0.79944  0.44565
EC126  EC   0.58631  0.79944  0.55435
EC127  EC   0.58631  0.94565  0.20056
EC128  EC   0.58631  0.94565  0.79944
EC129  EC   0.70056  0.05435  0.41369
EC130  EC   0.70056  0.05435  0.58631
EC131  EC   0.70056  0.08631  0.05435
EC132  EC   0.70056  0.08631  0.94565
EC133  EC   0.70056  0.41369  0.44565
EC134  EC   0.70056  0.41369  0.55435
EC135  EC   0.70056  0.44565  0.08631
EC136  EC   0.70056  0.44565  0.91369
EC137  EC   0.70056  0.55435  0.08631
EC138  EC   0.70056  0.55435  0.91369
EC139  EC   0.70056  0.58631  0.44565
EC140  EC   0.70056  0.58631  0.55435
EC141  EC   0.70056  0.91369  0.05435
EC142  EC   0.70056  0.91369  0.94565
EC143  EC   0.70056  0.94565  0.41369
EC144  EC   0.70056  0.94565  0.58631
EC145  EC   0.79944  0.05435  0.08631
EC146  EC   0.79944  0.05435  0.91369
EC147  EC   0.79944  0.08631  0.44565
EC148  EC   0.79944  0.08631  0.55435
EC149  EC   0.79944  0.41369  0.05435
EC150  EC   0.79944  0.41369  0.94565
EC151  EC   0.79944  0.44565  0.41369
EC152  EC   0.79944  0.44565  0.58631
EC153  EC   0.79944  0.55435  0.41369
EC154  EC   0.79944  0.55435  0.58631
EC155  EC   0.79944  0.58631  0.05435
EC156  EC   0.79944  0.58631  0.94565
EC157  EC   0.79944  0.91369  0.44565
EC158  EC   0.79944  0.91369  0.55435
EC159  EC   0.79944  0.94565  0.08631
EC160  EC   0.79944  0.94565  0.91369
EC161  EC   0.91369  0.05435  0.29944
EC162  EC   0.91369  0.05435  0.70056
EC163  EC   0.91369  0.20056  0.05435
EC164  EC   0.91369  0.20056  0.94565
EC165  EC   0.91369  0.29944  0.44565
EC166  EC   0.91369  0.29944  0.55435
EC167  EC   0.91369  0.44565  0.20056
EC168  EC   0.91369  0.44565  0.79944
EC169  EC   0.91369  0.55435  0.20056
EC170  EC   0.91369  0.55435  0.79944
EC171  EC   0.91369  0.70056  0.44565
EC172  EC   0.91369  0.70056  0.55435
EC173  EC   0.91369  0.79944  0.05435
EC174  EC   0.91369  0.79944  0.94565
EC175  EC   0.91369  0.94565  0.29944
EC176  EC   0.91369  0.94565  0.70056
EC177  EC   0.94565  0.08631  0.20056
EC178  EC   0.94565  0.08631  0.79944
EC179  EC   0.94565  0.20056  0.41369
EC180  EC   0.94565  0.20056  0.58631
EC181  EC   0.94565  0.29944  0.08631
EC182  EC   0.94565  0.29944  0.91369
EC183  EC   0.94565  0.41369  0.29944
EC184  EC   0.94565  0.41369  0.70056
EC185  EC   0.94565  0.58631  0.29944
EC186  EC   0.94565  0.58631  0.70056
EC187  EC   0.94565  0.70056  0.08631
EC188  EC   0.94565  0.70056  0.91369
EC189  EC   0.94565  0.79944  0.41369
EC190  EC   0.94565  0.79944  0.58631
EC191  EC   0.94565  0.91369  0.20056
EC192  EC   0.94565  0.91369  0.79944
E1    E   0.00000  0.08631  0.20056
E2    E   0.00000  0.08631  0.79944
E3    E   0.00000  0.20056  0.41369
E4    E   0.00000  0.20056  0.58631
E5    E   0.00000  0.29944  0.08631
E6    E   0.00000  0.29944  0.91369
E7    E   0.00000  0.41369  0.29944
E8    E   0.00000  0.41369  0.70056
E9    E   0.00000  0.58631  0.29944
E10   E   0.00000  0.58631  0.70056
E11   E   0.00000  0.70056  0.08631
E12   E   0.00000  0.70056  0.91369
E13   E   0.00000  0.79944  0.41369
E14   E   0.00000  0.79944  0.58631
E15   E   0.00000  0.91369  0.20056
E16   E   0.00000  0.91369  0.79944
E17   E   0.07033  0.07033  0.25000
E18   E   0.07033  0.07033  0.75000
E19   E   0.07033  0.25000  0.07033
E20   E   0.07033  0.25000  0.42967
E21   E   0.07033  0.25000  0.57033
E22   E   0.07033  0.25000  0.92967
E23   E   0.07033  0.42967  0.25000
E24   E   0.07033  0.42967  0.75000
E25   E   0.07033  0.57033  0.25000
E26   E   0.07033  0.57033  0.75000
E27   E   0.07033  0.75000  0.07033
E28   E   0.07033  0.75000  0.42967
E29   E   0.07033  0.75000  0.57033
E30   E   0.07033  0.75000  0.92967
E31   E   0.07033  0.92967  0.25000
E32   E   0.07033  0.92967  0.75000
E33   E   0.08398  0.09996  0.15709
E34   E   0.08398  0.09996  0.84291
E35   E   0.08398  0.15709  0.40004
E36   E   0.08398  0.15709  0.59996
E37   E   0.08398  0.34291  0.09996
E38   E   0.08398  0.34291  0.90004
E39   E   0.08398  0.40004  0.34291
E40   E   0.08398  0.40004  0.65709
E41   E   0.08398  0.59996  0.34291
E42   E   0.08398  0.59996  0.65709
E43   E   0.08398  0.65709  0.09996
E44   E   0.08398  0.65709  0.90004
E45   E   0.08398  0.84291  0.40004
E46   E   0.08398  0.84291  0.59996
E47   E   0.08398  0.90004  0.15709
E48   E   0.08398  0.90004  0.84291
E49   E   0.08631  0.00000  0.29944
E50   E   0.08631  0.00000  0.70056
E51   E   0.08631  0.20056  0.00000
E52   E   0.08631  0.29944  0.50000
E53   E   0.08631  0.50000  0.20056
E54   E   0.08631  0.50000  0.79944
E55   E   0.08631  0.70056  0.50000
E56   E   0.08631  0.79944  0.00000
E57   E   0.09996  0.08398  0.34291
E58   E   0.09996  0.08398  0.65709
E59   E   0.09996  0.15709  0.08398
E60   E   0.09996  0.15709  0.91602
E61   E   0.09996  0.34291  0.41602
E62   E   0.09996  0.34291  0.58398
E63   E   0.09996  0.41602  0.15709
E64   E   0.09996  0.41602  0.84291
E65   E   0.09996  0.58398  0.15709
E66   E   0.09996  0.58398  0.84291
E67   E   0.09996  0.65709  0.41602
E68   E   0.09996  0.65709  0.58398
E69   E   0.09996  0.84291  0.08398
E70   E   0.09996  0.84291  0.91602
E71   E   0.09996  0.91602  0.34291
E72   E   0.09996  0.91602  0.65709
E73   E   0.15709  0.08398  0.09996
E74   E   0.15709  0.08398  0.90004
E75   E   0.15709  0.09996  0.41602
E76   E   0.15709  0.09996  0.58398
E77   E   0.15709  0.40004  0.08398
E78   E   0.15709  0.40004  0.91602
E79   E   0.15709  0.41602  0.40004
E80   E   0.15709  0.41602  0.59996
E81   E   0.15709  0.58398  0.40004
E82   E   0.15709  0.58398  0.59996
E83   E   0.15709  0.59996  0.08398
E84   E   0.15709  0.59996  0.91602
E85   E   0.15709  0.90004  0.41602
E86   E   0.15709  0.90004  0.58398
E87   E   0.15709  0.91602  0.09996
E88   E   0.15709  0.91602  0.90004
E89   E   0.20056  0.00000  0.08631
E90   E   0.20056  0.00000  0.91369
E91   E   0.20056  0.08631  0.50000
E92   E   0.20056  0.41369  0.00000
E93   E   0.20056  0.50000  0.41369
E94   E   0.20056  0.50000  0.58631
E95   E   0.20056  0.58631  0.00000
E96   E   0.20056  0.91369  0.50000
E97   E   0.25000  0.07033  0.07033
E98   E   0.25000  0.07033  0.42967
E99   E   0.25000  0.07033  0.57033
E100  E   0.25000  0.07033  0.92967
E101  E   0.25000  0.42967  0.07033
E102  E   0.25000  0.42967  0.42967
E103  E   0.25000  0.42967  0.57033
E104  E   0.25000  0.42967  0.92967
E105  E   0.25000  0.57033  0.07033
E106  E   0.25000  0.57033  0.42967
E107  E   0.25000  0.57033  0.57033
E108  E   0.25000  0.57033  0.92967
E109  E   0.25000  0.92967  0.07033
E110  E   0.25000  0.92967  0.42967
E111  E   0.25000  0.92967  0.57033
E112  E   0.25000  0.92967  0.92967
E113  E   0.29944  0.00000  0.41369
E114  E   0.29944  0.00000  0.58631
E115  E   0.29944  0.08631  0.00000
E116  E   0.29944  0.41369  0.50000
E117  E   0.29944  0.50000  0.08631
E118  E   0.29944  0.50000  0.91369
E119  E   0.29944  0.58631  0.50000
E120  E   0.29944  0.91369  0.00000
E121  E   0.34291  0.08398  0.40004
E122  E   0.34291  0.08398  0.59996
E123  E   0.34291  0.09996  0.08398
E124  E   0.34291  0.09996  0.91602
E125  E   0.34291  0.40004  0.41602
E126  E   0.34291  0.40004  0.58398
E127  E   0.34291  0.41602  0.09996
E128  E   0.34291  0.41602  0.90004
E129  E   0.34291  0.58398  0.09996
E130  E   0.34291  0.58398  0.90004
E131  E   0.34291  0.59996  0.41602
E132  E   0.34291  0.59996  0.58398
E133  E   0.34291  0.90004  0.08398
E134  E   0.34291  0.90004  0.91602
E135  E   0.34291  0.91602  0.40004
E136  E   0.34291  0.91602  0.59996
E137  E   0.40004  0.08398  0.15709
E138  E   0.40004  0.08398  0.84291
E139  E   0.40004  0.15709  0.41602
E140  E   0.40004  0.15709  0.58398
E141  E   0.40004  0.34291  0.08398
E142  E   0.40004  0.34291  0.91602
E143  E   0.40004  0.41602  0.34291
E144  E   0.40004  0.41602  0.65709
E145  E   0.40004  0.58398  0.34291
E146  E   0.40004  0.58398  0.65709
E147  E   0.40004  0.65709  0.08398
E148  E   0.40004  0.65709  0.91602
E149  E   0.40004  0.84291  0.41602
E150  E   0.40004  0.84291  0.58398
E151  E   0.40004  0.91602  0.15709
E152  E   0.40004  0.91602  0.84291
E153  E   0.41369  0.00000  0.20056
E154  E   0.41369  0.00000  0.79944
E155  E   0.41369  0.20056  0.50000
E156  E   0.41369  0.29944  0.00000
E157  E   0.41369  0.50000  0.29944
E158  E   0.41369  0.50000  0.70056
E159  E   0.41369  0.70056  0.00000
E160  E   0.41369  0.79944  0.50000
E161  E   0.41602  0.09996  0.34291
E162  E   0.41602  0.09996  0.65709
E163  E   0.41602  0.15709  0.09996
E164  E   0.41602  0.15709  0.90004
E165  E   0.41602  0.34291  0.40004
E166  E   0.41602  0.34291  0.59996
E167  E   0.41602  0.40004  0.15709
E168  E   0.41602  0.40004  0.84291
E169  E   0.41602  0.59996  0.15709
E170  E   0.41602  0.59996  0.84291
E171  E   0.41602  0.65709  0.40004
E172  E   0.41602  0.65709  0.59996
E173  E   0.41602  0.84291  0.09996
E174  E   0.41602  0.84291  0.90004
E175  E   0.41602  0.90004  0.34291
E176  E   0.41602  0.90004  0.65709
E177  E   0.42967  0.07033  0.25000
E178  E   0.42967  0.07033  0.75000
E179  E   0.42967  0.25000  0.07033
E180  E   0.42967  0.25000  0.42967
E181  E   0.42967  0.25000  0.57033
E182  E   0.42967  0.25000  0.92967
E183  E   0.42967  0.42967  0.25000
E184  E   0.42967  0.42967  0.75000
E185  E   0.42967  0.57033  0.25000
E186  E   0.42967  0.57033  0.75000
E187  E   0.42967  0.75000  0.07033
E188  E   0.42967  0.75000  0.42967
E189  E   0.42967  0.75000  0.57033
E190  E   0.42967  0.75000  0.92967
E191  E   0.42967  0.92967  0.25000
E192  E   0.42967  0.92967  0.75000
E193  E   0.50000  0.08631  0.29944
E194  E   0.50000  0.08631  0.70056
E195  E   0.50000  0.20056  0.08631
E196  E   0.50000  0.20056  0.91369
E197  E   0.50000  0.29944  0.41369
E198  E   0.50000  0.29944  0.58631
E199  E   0.50000  0.41369  0.20056
E200  E   0.50000  0.41369  0.79944
E201  E   0.50000  0.58631  0.20056
E202  E   0.50000  0.58631  0.79944
E203  E   0.50000  0.70056  0.41369
E204  E   0.50000  0.70056  0.58631
E205  E   0.50000  0.79944  0.08631
E206  E   0.50000  0.79944  0.91369
E207  E   0.50000  0.91369  0.29944
E208  E   0.50000  0.91369  0.70056
E209  E   0.57033  0.07033  0.25000
E210  E   0.57033  0.07033  0.75000
E211  E   0.57033  0.25000  0.07033
E212  E   0.57033  0.25000  0.42967
E213  E   0.57033  0.25000  0.57033
E214  E   0.57033  0.25000  0.92967
E215  E   0.57033  0.42967  0.25000
E216  E   0.57033  0.42967  0.75000
E217  E   0.57033  0.57033  0.25000
E218  E   0.57033  0.57033  0.75000
E219  E   0.57033  0.75000  0.07033
E220  E   0.57033  0.75000  0.42967
E221  E   0.57033  0.75000  0.57033
E222  E   0.57033  0.75000  0.92967
E223  E   0.57033  0.92967  0.25000
E224  E   0.57033  0.92967  0.75000
E225  E   0.58398  0.09996  0.34291
E226  E   0.58398  0.09996  0.65709
E227  E   0.58398  0.15709  0.09996
E228  E   0.58398  0.15709  0.90004
E229  E   0.58398  0.34291  0.40004
E230  E   0.58398  0.34291  0.59996
E231  E   0.58398  0.40004  0.15709
E232  E   0.58398  0.40004  0.84291
E233  E   0.58398  0.59996  0.15709
E234  E   0.58398  0.59996  0.84291
E235  E   0.58398  0.65709  0.40004
E236  E   0.58398  0.65709  0.59996
E237  E   0.58398  0.84291  0.09996
E238  E   0.58398  0.84291  0.90004
E239  E   0.58398  0.90004  0.34291
E240  E   0.58398  0.90004  0.65709
E241  E   0.58631  0.00000  0.20056
E242  E   0.58631  0.00000  0.79944
E243  E   0.58631  0.20056  0.50000
E244  E   0.58631  0.29944  0.00000
E245  E   0.58631  0.50000  0.29944
E246  E   0.58631  0.50000  0.70056
E247  E   0.58631  0.70056  0.00000
E248  E   0.58631  0.79944  0.50000
E249  E   0.59996  0.08398  0.15709
E250  E   0.59996  0.08398  0.84291
E251  E   0.59996  0.15709  0.41602
E252  E   0.59996  0.15709  0.58398
E253  E   0.59996  0.34291  0.08398
E254  E   0.59996  0.34291  0.91602
E255  E   0.59996  0.41602  0.34291
E256  E   0.59996  0.41602  0.65709
E257  E   0.59996  0.58398  0.34291
E258  E   0.59996  0.58398  0.65709
E259  E   0.59996  0.65709  0.08398
E260  E   0.59996  0.65709  0.91602
E261  E   0.59996  0.84291  0.41602
E262  E   0.59996  0.84291  0.58398
E263  E   0.59996  0.91602  0.15709
E264  E   0.59996  0.91602  0.84291
E265  E   0.65709  0.08398  0.40004
E266  E   0.65709  0.08398  0.59996
E267  E   0.65709  0.09996  0.08398
E268  E   0.65709  0.09996  0.91602
E269  E   0.65709  0.40004  0.41602
E270  E   0.65709  0.40004  0.58398
E271  E   0.65709  0.41602  0.09996
E272  E   0.65709  0.41602  0.90004
E273  E   0.65709  0.58398  0.09996
E274  E   0.65709  0.58398  0.90004
E275  E   0.65709  0.59996  0.41602
E276  E   0.65709  0.59996  0.58398
E277  E   0.65709  0.90004  0.08398
E278  E   0.65709  0.90004  0.91602
E279  E   0.65709  0.91602  0.40004
E280  E   0.65709  0.91602  0.59996
E281  E   0.70056  0.00000  0.41369
E282  E   0.70056  0.00000  0.58631
E283  E   0.70056  0.08631  0.00000
E284  E   0.70056  0.41369  0.50000
E285  E   0.70056  0.50000  0.08631
E286  E   0.70056  0.50000  0.91369
E287  E   0.70056  0.58631  0.50000
E288  E   0.70056  0.91369  0.00000
E289  E   0.75000  0.07033  0.07033
E290  E   0.75000  0.07033  0.42967
E291  E   0.75000  0.07033  0.57033
E292  E   0.75000  0.07033  0.92967
E293  E   0.75000  0.42967  0.07033
E294  E   0.75000  0.42967  0.42967
E295  E   0.75000  0.42967  0.57033
E296  E   0.75000  0.42967  0.92967
E297  E   0.75000  0.57033  0.07033
E298  E   0.75000  0.57033  0.42967
E299  E   0.75000  0.57033  0.57033
E300  E   0.75000  0.57033  0.92967
E301  E   0.75000  0.92967  0.07033
E302  E   0.75000  0.92967  0.42967
E303  E   0.75000  0.92967  0.57033
E304  E   0.75000  0.92967  0.92967
E305  E   0.79944  0.00000  0.08631
E306  E   0.79944  0.00000  0.91369
E307  E   0.79944  0.08631  0.50000
E308  E   0.79944  0.41369  0.00000
E309  E   0.79944  0.50000  0.41369
E310  E   0.79944  0.50000  0.58631
E311  E   0.79944  0.58631  0.00000
E312  E   0.79944  0.91369  0.50000
E313  E   0.84291  0.08398  0.09996
E314  E   0.84291  0.08398  0.90004
E315  E   0.84291  0.09996  0.41602
E316  E   0.84291  0.09996  0.58398
E317  E   0.84291  0.40004  0.08398
E318  E   0.84291  0.40004  0.91602
E319  E   0.84291  0.41602  0.40004
E320  E   0.84291  0.41602  0.59996
E321  E   0.84291  0.58398  0.40004
E322  E   0.84291  0.58398  0.59996
E323  E   0.84291  0.59996  0.08398
E324  E   0.84291  0.59996  0.91602
E325  E   0.84291  0.90004  0.41602
E326  E   0.84291  0.90004  0.58398
E327  E   0.84291  0.91602  0.09996
E328  E   0.84291  0.91602  0.90004
E329  E   0.90004  0.08398  0.34291
E330  E   0.90004  0.08398  0.65709
E331  E   0.90004  0.15709  0.08398
E332  E   0.90004  0.15709  0.91602
E333  E   0.90004  0.34291  0.41602
E334  E   0.90004  0.34291  0.58398
E335  E   0.90004  0.41602  0.15709
E336  E   0.90004  0.41602  0.84291
E337  E   0.90004  0.58398  0.15709
E338  E   0.90004  0.58398  0.84291
E339  E   0.90004  0.65709  0.41602
E340  E   0.90004  0.65709  0.58398
E341  E   0.90004  0.84291  0.08398
E342  E   0.90004  0.84291  0.91602
E343  E   0.90004  0.91602  0.34291
E344  E   0.90004  0.91602  0.65709
E345  E   0.91369  0.00000  0.29944
E346  E   0.91369  0.00000  0.70056
E347  E   0.91369  0.20056  0.00000
E348  E   0.91369  0.29944  0.50000
E349  E   0.91369  0.50000  0.20056
E350  E   0.91369  0.50000  0.79944
E351  E   0.91369  0.70056  0.50000
E352  E   0.91369  0.79944  0.00000
E353  E   0.91602  0.09996  0.15709
E354  E   0.91602  0.09996  0.84291
E355  E   0.91602  0.15709  0.40004
E356  E   0.91602  0.15709  0.59996
E357  E   0.91602  0.34291  0.09996
E358  E   0.91602  0.34291  0.90004
E359  E   0.91602  0.40004  0.34291
E360  E   0.91602  0.40004  0.65709
E361  E   0.91602  0.59996  0.34291
E362  E   0.91602  0.59996  0.65709
E363  E   0.91602  0.65709  0.09996
E364  E   0.91602  0.65709  0.90004
E365  E   0.91602  0.84291  0.40004
E366  E   0.91602  0.84291  0.59996
E367  E   0.91602  0.90004  0.15709
E368  E   0.91602  0.90004  0.84291
E369  E   0.92967  0.07033  0.25000
E370  E   0.92967  0.07033  0.75000
E371  E   0.92967  0.25000  0.07033
E372  E   0.92967  0.25000  0.42967
E373  E   0.92967  0.25000  0.57033
E374  E   0.92967  0.25000  0.92967
E375  E   0.92967  0.42967  0.25000
E376  E   0.92967  0.42967  0.75000
E377  E   0.92967  0.57033  0.25000
E378  E   0.92967  0.57033  0.75000
E379  E   0.92967  0.75000  0.07033
E380  E   0.92967  0.75000  0.42967
E381  E   0.92967  0.75000  0.57033
E382  E   0.92967  0.75000  0.92967
E383  E   0.92967  0.92967  0.25000
E384  E   0.92967  0.92967  0.75000
loop_
