data_etl_F4132  hall_number: 506, V_con: 3, EC_con: 3
_audit_creation_date              2025-03-06
_audit_creation_method            'MOFbuilder_1.0'
_symmetry_space_group_name_H-M    'P1'
_symmetry_Int_Tables_number       1
_symmetry_cell_setting            triclinic
loop_
_symmetry_equiv_pos_as_xyz
  x,y,z
_cell_length_a                    72.4665
_cell_length_b                    72.4665
_cell_length_c                    72.4665
_cell_angle_alpha                 90.0
_cell_angle_beta                  90.0
_cell_angle_gamma                 90.0
loop_
_atom_site_label
_atom_site_type_symbol
_atom_site_fract_x
_atom_site_fract_y
_atom_site_fract_z
V1    V   0.08425  0.08425  0.91575
V2    V   0.08425  0.41575  0.58425
V3    V   0.08425  0.58425  0.41575
V4    V   0.08425  0.91575  0.08425
V5    V   0.08425  0.08425  0.91575
V6    V   0.08425  0.08425  0.91575
V7    V   0.08425  0.41575  0.58425
V8    V   0.08425  0.58425  0.41575
V9    V   0.08425  0.91575  0.08425
V10   V   0.08425  0.91575  0.08425
V11   V   0.16575  0.16575  0.33425
V12   V   0.16575  0.33425  0.16575
V13   V   0.16575  0.66575  0.83425
V14   V   0.16575  0.83425  0.66575
V15   V   0.33425  0.16575  0.16575
V16   V   0.33425  0.33425  0.33425
V17   V   0.33425  0.66575  0.66575
V18   V   0.33425  0.83425  0.83425
V19   V   0.41575  0.08425  0.58425
V20   V   0.41575  0.08425  0.58425
V21   V   0.41575  0.41575  0.91575
V22   V   0.41575  0.58425  0.08425
V23   V   0.41575  0.58425  0.08425
V24   V   0.41575  0.91575  0.41575
V25   V   0.58425  0.08425  0.41575
V26   V   0.58425  0.08425  0.41575
V27   V   0.58425  0.41575  0.08425
V28   V   0.58425  0.41575  0.08425
V29   V   0.58425  0.58425  0.91575
V30   V   0.58425  0.91575  0.58425
V31   V   0.66575  0.16575  0.83425
V32   V   0.66575  0.33425  0.66575
V33   V   0.66575  0.66575  0.33425
V34   V   0.66575  0.83425  0.16575
V35   V   0.83425  0.16575  0.66575
V36   V   0.83425  0.33425  0.83425
V37   V   0.83425  0.66575  0.16575
V38   V   0.83425  0.83425  0.33425
V39   V   0.91575  0.08425  0.08425
V40   V   0.91575  0.08425  0.08425
V41   V   0.91575  0.08425  0.08425
V42   V   0.91575  0.41575  0.41575
V43   V   0.91575  0.58425  0.58425
V44   V   0.91575  0.91575  0.91575
EC1    EC   0.00472  0.06884  0.18860
EC2    EC   0.00472  0.43116  0.31140
EC3    EC   0.00472  0.56884  0.68860
EC4    EC   0.00472  0.93116  0.81140
EC5    EC   0.06140  0.18116  0.24528
EC6    EC   0.06140  0.31884  0.25472
EC7    EC   0.06140  0.68116  0.74528
EC8    EC   0.06140  0.81884  0.75472
EC9    EC   0.06884  0.18860  0.00472
EC10   EC   0.06884  0.31140  0.49528
EC11   EC   0.06884  0.68860  0.50472
EC12   EC   0.06884  0.81140  0.99528
EC13   EC   0.18116  0.24528  0.06140
EC14   EC   0.18116  0.25472  0.43860
EC15   EC   0.18116  0.74528  0.56140
EC16   EC   0.18116  0.75472  0.93860
EC17   EC   0.18860  0.00472  0.06884
EC18   EC   0.18860  0.49528  0.43116
EC19   EC   0.18860  0.50472  0.56884
EC20   EC   0.18860  0.99528  0.93116
EC21   EC   0.24528  0.06140  0.18116
EC22   EC   0.24528  0.43860  0.31884
EC23   EC   0.24528  0.56140  0.68116
EC24   EC   0.24528  0.93860  0.81884
EC25   EC   0.25472  0.06140  0.31884
EC26   EC   0.25472  0.43860  0.18116
EC27   EC   0.25472  0.56140  0.81884
EC28   EC   0.25472  0.93860  0.68116
EC29   EC   0.31140  0.00472  0.43116
EC30   EC   0.31140  0.49528  0.06884
EC31   EC   0.31140  0.50472  0.93116
EC32   EC   0.31140  0.99528  0.56884
EC33   EC   0.31884  0.24528  0.43860
EC34   EC   0.31884  0.25472  0.06140
EC35   EC   0.31884  0.74528  0.93860
EC36   EC   0.31884  0.75472  0.56140
EC37   EC   0.43116  0.18860  0.49528
EC38   EC   0.43116  0.31140  0.00472
EC39   EC   0.43116  0.68860  0.99528
EC40   EC   0.43116  0.81140  0.50472
EC41   EC   0.43860  0.18116  0.25472
EC42   EC   0.43860  0.31884  0.24528
EC43   EC   0.43860  0.68116  0.75472
EC44   EC   0.43860  0.81884  0.74528
EC45   EC   0.49528  0.06884  0.31140
EC46   EC   0.49528  0.43116  0.18860
EC47   EC   0.49528  0.56884  0.81140
EC48   EC   0.49528  0.93116  0.68860
EC49   EC   0.50472  0.06884  0.68860
EC50   EC   0.50472  0.43116  0.81140
EC51   EC   0.50472  0.56884  0.18860
EC52   EC   0.50472  0.93116  0.31140
EC53   EC   0.56140  0.18116  0.74528
EC54   EC   0.56140  0.31884  0.75472
EC55   EC   0.56140  0.68116  0.24528
EC56   EC   0.56140  0.81884  0.25472
EC57   EC   0.56884  0.18860  0.50472
EC58   EC   0.56884  0.31140  0.99528
EC59   EC   0.56884  0.68860  0.00472
EC60   EC   0.56884  0.81140  0.49528
EC61   EC   0.68116  0.24528  0.56140
EC62   EC   0.68116  0.25472  0.93860
EC63   EC   0.68116  0.74528  0.06140
EC64   EC   0.68116  0.75472  0.43860
EC65   EC   0.68860  0.00472  0.56884
EC66   EC   0.68860  0.49528  0.93116
EC67   EC   0.68860  0.50472  0.06884
EC68   EC   0.68860  0.99528  0.43116
EC69   EC   0.74528  0.06140  0.68116
EC70   EC   0.74528  0.43860  0.81884
EC71   EC   0.74528  0.56140  0.18116
EC72   EC   0.74528  0.93860  0.31884
EC73   EC   0.75472  0.06140  0.81884
EC74   EC   0.75472  0.43860  0.68116
EC75   EC   0.75472  0.56140  0.31884
EC76   EC   0.75472  0.93860  0.18116
EC77   EC   0.81140  0.00472  0.93116
EC78   EC   0.81140  0.49528  0.56884
EC79   EC   0.81140  0.50472  0.43116
EC80   EC   0.81140  0.99528  0.06884
EC81   EC   0.81884  0.24528  0.93860
EC82   EC   0.81884  0.25472  0.56140
EC83   EC   0.81884  0.74528  0.43860
EC84   EC   0.81884  0.75472  0.06140
EC85   EC   0.93116  0.18860  0.99528
EC86   EC   0.93116  0.31140  0.50472
EC87   EC   0.93116  0.68860  0.49528
EC88   EC   0.93116  0.81140  0.00472
EC89   EC   0.93860  0.18116  0.75472
EC90   EC   0.93860  0.31884  0.74528
EC91   EC   0.93860  0.68116  0.25472
EC92   EC   0.93860  0.81884  0.24528
EC93   EC   0.99528  0.06884  0.81140
EC94   EC   0.99528  0.43116  0.68860
EC95   EC   0.99528  0.56884  0.31140
EC96   EC   0.99528  0.93116  0.18860
E1    E   0.00000  0.00000  0.18860
E2    E   0.00000  0.00000  0.81140
E3    E   0.00000  0.18860  0.00000
E4    E   0.00000  0.31140  0.50000
E5    E   0.00000  0.50000  0.31140
E6    E   0.00000  0.50000  0.68860
E7    E   0.00000  0.68860  0.50000
E8    E   0.00000  0.81140  0.00000
E9    E   0.03306  0.12500  0.21694
E10   E   0.03306  0.37500  0.28306
E11   E   0.03306  0.62500  0.71694
E12   E   0.03306  0.87500  0.78306
E13   E   0.03306  0.12500  0.21694
E14   E   0.03306  0.37500  0.28306
E15   E   0.03306  0.62500  0.71694
E16   E   0.03306  0.87500  0.78306
E17   E   0.03976  0.07654  0.86358
E18   E   0.03976  0.42346  0.63642
E19   E   0.03976  0.57654  0.36358
E20   E   0.03976  0.92346  0.13642
E21   E   0.06140  0.25000  0.25000
E22   E   0.06140  0.75000  0.75000
E23   E   0.07654  0.13642  0.96024
E24   E   0.07654  0.36358  0.53976
E25   E   0.07654  0.63642  0.46024
E26   E   0.07654  0.86358  0.03976
E27   E   0.11358  0.17346  0.28976
E28   E   0.11358  0.32654  0.21024
E29   E   0.11358  0.67346  0.78976
E30   E   0.11358  0.82654  0.71024
E31   E   0.12500  0.21694  0.03306
E32   E   0.12500  0.21694  0.03306
E33   E   0.12500  0.28306  0.46694
E34   E   0.12500  0.71694  0.53306
E35   E   0.12500  0.78306  0.96694
E36   E   0.13642  0.03976  0.92346
E37   E   0.13642  0.46024  0.57654
E38   E   0.13642  0.53976  0.42346
E39   E   0.13642  0.96024  0.07654
E40   E   0.17346  0.21024  0.38642
E41   E   0.17346  0.28976  0.11358
E42   E   0.17346  0.71024  0.88642
E43   E   0.17346  0.78976  0.61358
E44   E   0.18860  0.00000  0.00000
E45   E   0.18860  0.50000  0.50000
E46   E   0.21024  0.11358  0.32654
E47   E   0.21024  0.38642  0.17346
E48   E   0.21024  0.61358  0.82654
E49   E   0.21024  0.88642  0.67346
E50   E   0.21694  0.03306  0.12500
E51   E   0.21694  0.03306  0.12500
E52   E   0.21694  0.46694  0.37500
E53   E   0.21694  0.53306  0.62500
E54   E   0.21694  0.96694  0.87500
E55   E   0.25000  0.06140  0.25000
E56   E   0.25000  0.25000  0.06140
E57   E   0.25000  0.25000  0.43860
E58   E   0.25000  0.43860  0.25000
E59   E   0.25000  0.56140  0.75000
E60   E   0.25000  0.75000  0.56140
E61   E   0.25000  0.75000  0.93860
E62   E   0.25000  0.93860  0.75000
E63   E   0.28306  0.03306  0.37500
E64   E   0.28306  0.03306  0.37500
E65   E   0.28306  0.46694  0.12500
E66   E   0.28306  0.53306  0.87500
E67   E   0.28306  0.96694  0.62500
E68   E   0.28976  0.11358  0.17346
E69   E   0.28976  0.38642  0.32654
E70   E   0.28976  0.61358  0.67346
E71   E   0.28976  0.88642  0.82654
E72   E   0.31140  0.00000  0.50000
E73   E   0.31140  0.50000  0.00000
E74   E   0.32654  0.21024  0.11358
E75   E   0.32654  0.28976  0.38642
E76   E   0.32654  0.71024  0.61358
E77   E   0.32654  0.78976  0.88642
E78   E   0.36358  0.03976  0.57654
E79   E   0.36358  0.46024  0.92346
E80   E   0.36358  0.53976  0.07654
E81   E   0.36358  0.96024  0.42346
E82   E   0.37500  0.21694  0.46694
E83   E   0.37500  0.28306  0.03306
E84   E   0.37500  0.28306  0.03306
E85   E   0.37500  0.71694  0.96694
E86   E   0.37500  0.78306  0.53306
E87   E   0.38642  0.17346  0.21024
E88   E   0.38642  0.32654  0.28976
E89   E   0.38642  0.67346  0.71024
E90   E   0.38642  0.82654  0.78976
E91   E   0.42346  0.13642  0.53976
E92   E   0.42346  0.36358  0.96024
E93   E   0.42346  0.63642  0.03976
E94   E   0.42346  0.86358  0.46024
E95   E   0.43860  0.25000  0.25000
E96   E   0.43860  0.75000  0.75000
E97   E   0.46024  0.07654  0.63642
E98   E   0.46024  0.42346  0.86358
E99   E   0.46024  0.57654  0.13642
E100  E   0.46024  0.92346  0.36358
E101  E   0.46694  0.12500  0.28306
E102  E   0.46694  0.37500  0.21694
E103  E   0.46694  0.62500  0.78306
E104  E   0.46694  0.87500  0.71694
E105  E   0.50000  0.00000  0.31140
E106  E   0.50000  0.00000  0.68860
E107  E   0.50000  0.18860  0.50000
E108  E   0.50000  0.31140  0.00000
E109  E   0.50000  0.50000  0.18860
E110  E   0.50000  0.50000  0.81140
E111  E   0.50000  0.68860  0.00000
E112  E   0.50000  0.81140  0.50000
E113  E   0.53306  0.12500  0.71694
E114  E   0.53306  0.37500  0.78306
E115  E   0.53306  0.62500  0.21694
E116  E   0.53306  0.87500  0.28306
E117  E   0.53976  0.07654  0.36358
E118  E   0.53976  0.42346  0.13642
E119  E   0.53976  0.57654  0.86358
E120  E   0.53976  0.92346  0.63642
E121  E   0.56140  0.25000  0.75000
E122  E   0.56140  0.75000  0.25000
E123  E   0.57654  0.13642  0.46024
E124  E   0.57654  0.36358  0.03976
E125  E   0.57654  0.63642  0.96024
E126  E   0.57654  0.86358  0.53976
E127  E   0.61358  0.17346  0.78976
E128  E   0.61358  0.32654  0.71024
E129  E   0.61358  0.67346  0.28976
E130  E   0.61358  0.82654  0.21024
E131  E   0.62500  0.21694  0.53306
E132  E   0.62500  0.28306  0.96694
E133  E   0.62500  0.71694  0.03306
E134  E   0.62500  0.71694  0.03306
E135  E   0.62500  0.78306  0.46694
E136  E   0.63642  0.03976  0.42346
E137  E   0.63642  0.46024  0.07654
E138  E   0.63642  0.53976  0.92346
E139  E   0.63642  0.96024  0.57654
E140  E   0.67346  0.21024  0.88642
E141  E   0.67346  0.28976  0.61358
E142  E   0.67346  0.71024  0.38642
E143  E   0.67346  0.78976  0.11358
E144  E   0.68860  0.00000  0.50000
E145  E   0.68860  0.50000  0.00000
E146  E   0.71024  0.11358  0.82654
E147  E   0.71024  0.38642  0.67346
E148  E   0.71024  0.61358  0.32654
E149  E   0.71024  0.88642  0.17346
E150  E   0.71694  0.03306  0.62500
E151  E   0.71694  0.03306  0.62500
E152  E   0.71694  0.46694  0.87500
E153  E   0.71694  0.53306  0.12500
E154  E   0.71694  0.96694  0.37500
E155  E   0.75000  0.06140  0.75000
E156  E   0.75000  0.25000  0.56140
E157  E   0.75000  0.25000  0.93860
E158  E   0.75000  0.43860  0.75000
E159  E   0.75000  0.56140  0.25000
E160  E   0.75000  0.75000  0.06140
E161  E   0.75000  0.75000  0.43860
E162  E   0.75000  0.93860  0.25000
E163  E   0.78306  0.03306  0.87500
E164  E   0.78306  0.03306  0.87500
E165  E   0.78306  0.46694  0.62500
E166  E   0.78306  0.53306  0.37500
E167  E   0.78306  0.96694  0.12500
E168  E   0.78976  0.11358  0.67346
E169  E   0.78976  0.38642  0.82654
E170  E   0.78976  0.61358  0.17346
E171  E   0.78976  0.88642  0.32654
E172  E   0.81140  0.00000  0.00000
E173  E   0.81140  0.50000  0.50000
E174  E   0.82654  0.21024  0.61358
E175  E   0.82654  0.28976  0.88642
E176  E   0.82654  0.71024  0.11358
E177  E   0.82654  0.78976  0.38642
E178  E   0.86358  0.03976  0.07654
E179  E   0.86358  0.46024  0.42346
E180  E   0.86358  0.53976  0.57654
E181  E   0.86358  0.96024  0.92346
E182  E   0.87500  0.21694  0.96694
E183  E   0.87500  0.28306  0.53306
E184  E   0.87500  0.71694  0.46694
E185  E   0.87500  0.78306  0.03306
E186  E   0.87500  0.78306  0.03306
E187  E   0.88642  0.17346  0.71024
E188  E   0.88642  0.32654  0.78976
E189  E   0.88642  0.67346  0.21024
E190  E   0.88642  0.82654  0.28976
E191  E   0.92346  0.13642  0.03976
E192  E   0.92346  0.36358  0.46024
E193  E   0.92346  0.63642  0.53976
E194  E   0.92346  0.86358  0.96024
E195  E   0.93860  0.25000  0.75000
E196  E   0.93860  0.75000  0.25000
E197  E   0.96024  0.07654  0.13642
E198  E   0.96024  0.42346  0.36358
E199  E   0.96024  0.57654  0.63642
E200  E   0.96024  0.92346  0.86358
E201  E   0.96694  0.12500  0.78306
E202  E   0.96694  0.37500  0.71694
E203  E   0.96694  0.62500  0.28306
E204  E   0.96694  0.87500  0.21694
loop_
