data_etq_I432  hall_number: 507, V_con: 3, EC_con: 3
_audit_creation_date              2025-03-06
_audit_creation_method            'MOFbuilder_1.0'
_symmetry_space_group_name_H-M    'P1'
_symmetry_Int_Tables_number       1
_symmetry_cell_setting            triclinic
loop_
_symmetry_equiv_pos_as_xyz
  x,y,z
_cell_length_a                    39.723
_cell_length_b                    39.723
_cell_length_c                    39.723
_cell_angle_alpha                 90.0
_cell_angle_beta                  90.0
_cell_angle_gamma                 90.0
loop_
_atom_site_label
_atom_site_type_symbol
_atom_site_fract_x
_atom_site_fract_y
_atom_site_fract_z
V1    V   0.25000  0.25000  0.25000
V2    V   0.25000  0.25000  0.75000
V3    V   0.25000  0.75000  0.25000
V4    V   0.25000  0.75000  0.75000
V5    V   0.75000  0.25000  0.25000
V6    V   0.75000  0.25000  0.75000
V7    V   0.75000  0.75000  0.25000
V8    V   0.75000  0.75000  0.75000
EC1    EC   0.10018  0.25000  0.60018
EC2    EC   0.10018  0.39982  0.25000
EC3    EC   0.10018  0.60018  0.75000
EC4    EC   0.10018  0.75000  0.39982
EC5    EC   0.10018  0.25000  0.60018
EC6    EC   0.10018  0.39982  0.25000
EC7    EC   0.10018  0.60018  0.75000
EC8    EC   0.10018  0.75000  0.39982
EC9    EC   0.25000  0.10018  0.39982
EC10   EC   0.25000  0.10018  0.39982
EC11   EC   0.25000  0.39982  0.89982
EC12   EC   0.25000  0.39982  0.89982
EC13   EC   0.25000  0.60018  0.10018
EC14   EC   0.25000  0.60018  0.10018
EC15   EC   0.25000  0.89982  0.60018
EC16   EC   0.25000  0.89982  0.60018
EC17   EC   0.39982  0.10018  0.75000
EC18   EC   0.39982  0.10018  0.75000
EC19   EC   0.39982  0.25000  0.10018
EC20   EC   0.39982  0.25000  0.10018
EC21   EC   0.39982  0.75000  0.89982
EC22   EC   0.39982  0.75000  0.89982
EC23   EC   0.39982  0.89982  0.25000
EC24   EC   0.39982  0.89982  0.25000
EC25   EC   0.60018  0.10018  0.25000
EC26   EC   0.60018  0.25000  0.89982
EC27   EC   0.60018  0.75000  0.10018
EC28   EC   0.60018  0.89982  0.75000
EC29   EC   0.60018  0.10018  0.25000
EC30   EC   0.60018  0.25000  0.89982
EC31   EC   0.60018  0.75000  0.10018
EC32   EC   0.60018  0.89982  0.75000
EC33   EC   0.75000  0.10018  0.60018
EC34   EC   0.75000  0.10018  0.60018
EC35   EC   0.75000  0.39982  0.10018
EC36   EC   0.75000  0.39982  0.10018
EC37   EC   0.75000  0.60018  0.89982
EC38   EC   0.75000  0.60018  0.89982
EC39   EC   0.75000  0.89982  0.39982
EC40   EC   0.75000  0.89982  0.39982
EC41   EC   0.89982  0.25000  0.39982
EC42   EC   0.89982  0.39982  0.75000
EC43   EC   0.89982  0.60018  0.25000
EC44   EC   0.89982  0.75000  0.60018
EC45   EC   0.89982  0.25000  0.39982
EC46   EC   0.89982  0.39982  0.75000
EC47   EC   0.89982  0.60018  0.25000
EC48   EC   0.89982  0.75000  0.60018
E1    E   0.00000  0.32491  0.32491
E2    E   0.00000  0.32491  0.67509
E3    E   0.00000  0.67509  0.32491
E4    E   0.00000  0.67509  0.67509
E5    E   0.17509  0.17509  0.50000
E6    E   0.17509  0.25000  0.67509
E7    E   0.17509  0.32491  0.25000
E8    E   0.17509  0.50000  0.17509
E9    E   0.17509  0.50000  0.82491
E10   E   0.17509  0.67509  0.75000
E11   E   0.17509  0.75000  0.32491
E12   E   0.17509  0.82491  0.50000
E13   E   0.17509  0.25000  0.67509
E14   E   0.17509  0.32491  0.25000
E15   E   0.17509  0.67509  0.75000
E16   E   0.17509  0.75000  0.32491
E17   E   0.25000  0.17509  0.32491
E18   E   0.25000  0.17509  0.32491
E19   E   0.25000  0.32491  0.82491
E20   E   0.25000  0.32491  0.82491
E21   E   0.25000  0.67509  0.17509
E22   E   0.25000  0.67509  0.17509
E23   E   0.25000  0.82491  0.67509
E24   E   0.32491  0.17509  0.75000
E25   E   0.32491  0.25000  0.17509
E26   E   0.32491  0.75000  0.82491
E27   E   0.32491  0.82491  0.25000
E28   E   0.32491  0.00000  0.32491
E29   E   0.32491  0.00000  0.67509
E30   E   0.32491  0.17509  0.75000
E31   E   0.32491  0.25000  0.17509
E32   E   0.32491  0.32491  0.00000
E33   E   0.32491  0.67509  0.00000
E34   E   0.32491  0.75000  0.82491
E35   E   0.32491  0.82491  0.25000
E36   E   0.50000  0.17509  0.17509
E37   E   0.50000  0.17509  0.82491
E38   E   0.50000  0.82491  0.17509
E39   E   0.50000  0.82491  0.82491
E40   E   0.67509  0.00000  0.32491
E41   E   0.67509  0.00000  0.67509
E42   E   0.67509  0.17509  0.25000
E43   E   0.67509  0.17509  0.25000
E44   E   0.67509  0.25000  0.82491
E45   E   0.67509  0.32491  0.00000
E46   E   0.67509  0.67509  0.00000
E47   E   0.67509  0.75000  0.17509
E48   E   0.67509  0.75000  0.17509
E49   E   0.67509  0.82491  0.75000
E50   E   0.75000  0.17509  0.67509
E51   E   0.75000  0.17509  0.67509
E52   E   0.75000  0.32491  0.17509
E53   E   0.75000  0.32491  0.17509
E54   E   0.75000  0.67509  0.82491
E55   E   0.75000  0.82491  0.32491
E56   E   0.75000  0.82491  0.32491
E57   E   0.82491  0.17509  0.50000
E58   E   0.82491  0.25000  0.32491
E59   E   0.82491  0.25000  0.32491
E60   E   0.82491  0.32491  0.75000
E61   E   0.82491  0.32491  0.75000
E62   E   0.82491  0.50000  0.17509
E63   E   0.82491  0.50000  0.82491
E64   E   0.82491  0.67509  0.25000
E65   E   0.82491  0.75000  0.67509
E66   E   0.82491  0.82491  0.50000
loop_
