data_ets_I4132  hall_number: 510, V_con: 3, EC_con: 3
_audit_creation_date              2025-03-06
_audit_creation_method            'MOFbuilder_1.0'
_symmetry_space_group_name_H-M    'P1'
_symmetry_Int_Tables_number       1
_symmetry_cell_setting            triclinic
loop_
_symmetry_equiv_pos_as_xyz
  x,y,z
_cell_length_a                    57.7975
_cell_length_b                    57.7975
_cell_length_c                    57.7975
_cell_angle_alpha                 90.0
_cell_angle_beta                  90.0
_cell_angle_gamma                 90.0
loop_
_atom_site_label
_atom_site_type_symbol
_atom_site_fract_x
_atom_site_fract_y
_atom_site_fract_z
V1    V   0.03823  0.46177  0.53823
V2    V   0.03823  0.53823  0.96177
V3    V   0.21177  0.28823  0.71177
V4    V   0.21177  0.71177  0.78823
V5    V   0.28823  0.28823  0.28823
V6    V   0.28823  0.71177  0.21177
V7    V   0.46177  0.46177  0.46177
V8    V   0.46177  0.53823  0.03823
V9    V   0.53823  0.03823  0.46177
V10   V   0.53823  0.96177  0.03823
V11   V   0.71177  0.21177  0.28823
V12   V   0.71177  0.78823  0.21177
V13   V   0.78823  0.21177  0.71177
V14   V   0.78823  0.78823  0.78823
V15   V   0.96177  0.03823  0.53823
V16   V   0.96177  0.96177  0.96177
EC1    EC   0.01517  0.04828  0.82173
EC2    EC   0.01517  0.95172  0.67827
EC3    EC   0.04828  0.17827  0.48483
EC4    EC   0.04828  0.82173  0.01517
EC5    EC   0.07173  0.20172  0.76517
EC6    EC   0.07173  0.79828  0.73483
EC7    EC   0.17827  0.48483  0.04828
EC8    EC   0.17827  0.51517  0.45172
EC9    EC   0.20172  0.23483  0.42827
EC10   EC   0.20172  0.76517  0.07173
EC11   EC   0.23483  0.42827  0.20172
EC12   EC   0.23483  0.57173  0.29828
EC13   EC   0.26517  0.42827  0.79828
EC14   EC   0.26517  0.57173  0.70172
EC15   EC   0.29828  0.23483  0.57173
EC16   EC   0.29828  0.76517  0.92827
EC17   EC   0.32173  0.48483  0.95172
EC18   EC   0.32173  0.51517  0.54828
EC19   EC   0.42827  0.20172  0.23483
EC20   EC   0.42827  0.79828  0.26517
EC21   EC   0.45172  0.17827  0.51517
EC22   EC   0.45172  0.82173  0.98483
EC23   EC   0.48483  0.04828  0.17827
EC24   EC   0.48483  0.95172  0.32173
EC25   EC   0.51517  0.45172  0.17827
EC26   EC   0.51517  0.54828  0.32173
EC27   EC   0.54828  0.32173  0.51517
EC28   EC   0.54828  0.67827  0.98483
EC29   EC   0.57173  0.29828  0.23483
EC30   EC   0.57173  0.70172  0.26517
EC31   EC   0.67827  0.01517  0.95172
EC32   EC   0.67827  0.98483  0.54828
EC33   EC   0.70172  0.26517  0.57173
EC34   EC   0.70172  0.73483  0.92827
EC35   EC   0.73483  0.07173  0.79828
EC36   EC   0.73483  0.92827  0.70172
EC37   EC   0.76517  0.07173  0.20172
EC38   EC   0.76517  0.92827  0.29828
EC39   EC   0.79828  0.26517  0.42827
EC40   EC   0.79828  0.73483  0.07173
EC41   EC   0.82173  0.01517  0.04828
EC42   EC   0.82173  0.98483  0.45172
EC43   EC   0.92827  0.29828  0.76517
EC44   EC   0.92827  0.70172  0.73483
EC45   EC   0.95172  0.32173  0.48483
EC46   EC   0.95172  0.67827  0.01517
EC47   EC   0.98483  0.45172  0.82173
EC48   EC   0.98483  0.54828  0.67827
E1    E   0.00000  0.25000  0.48483
E2    E   0.00000  0.25000  0.76517
E3    E   0.00000  0.75000  0.01517
E4    E   0.00000  0.75000  0.73483
E5    E   0.00503  0.10825  0.51153
E6    E   0.00503  0.89175  0.98847
E7    E   0.01153  0.49497  0.89175
E8    E   0.01153  0.50503  0.60825
E9    E   0.01517  0.00000  0.75000
E10   E   0.04345  0.12500  0.79345
E11   E   0.04345  0.87500  0.70655
E12   E   0.10825  0.48847  0.49497
E13   E   0.10825  0.51153  0.00503
E14   E   0.12500  0.20655  0.45655
E15   E   0.12500  0.79345  0.04345
E16   E   0.14175  0.24497  0.73847
E17   E   0.14175  0.75503  0.76153
E18   E   0.20655  0.45655  0.12500
E19   E   0.20655  0.54345  0.37500
E20   E   0.23483  0.50000  0.25000
E21   E   0.23847  0.35825  0.75503
E22   E   0.23847  0.64175  0.74497
E23   E   0.24497  0.26153  0.35825
E24   E   0.24497  0.73847  0.14175
E25   E   0.25000  0.23483  0.50000
E26   E   0.25000  0.48483  0.00000
E27   E   0.25000  0.51517  0.50000
E28   E   0.25000  0.76517  0.00000
E29   E   0.25503  0.26153  0.64175
E30   E   0.25503  0.73847  0.85825
E31   E   0.26153  0.35825  0.24497
E32   E   0.26153  0.64175  0.25503
E33   E   0.26517  0.50000  0.75000
E34   E   0.29345  0.45655  0.87500
E35   E   0.29345  0.54345  0.62500
E36   E   0.35825  0.24497  0.26153
E37   E   0.35825  0.75503  0.23847
E38   E   0.37500  0.20655  0.54345
E39   E   0.37500  0.79345  0.95655
E40   E   0.39175  0.48847  0.50503
E41   E   0.39175  0.51153  0.99497
E42   E   0.45655  0.12500  0.20655
E43   E   0.45655  0.87500  0.29345
E44   E   0.48483  0.00000  0.25000
E45   E   0.48847  0.49497  0.10825
E46   E   0.48847  0.50503  0.39175
E47   E   0.49497  0.10825  0.48847
E48   E   0.49497  0.89175  0.01153
E49   E   0.50000  0.25000  0.23483
E50   E   0.50000  0.25000  0.51517
E51   E   0.50000  0.75000  0.26517
E52   E   0.50000  0.75000  0.98483
E53   E   0.50503  0.39175  0.48847
E54   E   0.50503  0.60825  0.01153
E55   E   0.51153  0.00503  0.10825
E56   E   0.51153  0.99497  0.39175
E57   E   0.51517  0.50000  0.25000
E58   E   0.54345  0.37500  0.20655
E59   E   0.54345  0.62500  0.29345
E60   E   0.60825  0.01153  0.50503
E61   E   0.60825  0.98847  0.99497
E62   E   0.62500  0.29345  0.54345
E63   E   0.62500  0.70655  0.95655
E64   E   0.64175  0.25503  0.26153
E65   E   0.64175  0.74497  0.23847
E66   E   0.70655  0.04345  0.87500
E67   E   0.70655  0.95655  0.62500
E68   E   0.73483  0.00000  0.75000
E69   E   0.73847  0.14175  0.24497
E70   E   0.73847  0.85825  0.25503
E71   E   0.74497  0.23847  0.64175
E72   E   0.74497  0.76153  0.85825
E73   E   0.75000  0.01517  0.00000
E74   E   0.75000  0.26517  0.50000
E75   E   0.75000  0.73483  0.00000
E76   E   0.75000  0.98483  0.50000
E77   E   0.75503  0.23847  0.35825
E78   E   0.75503  0.76153  0.14175
E79   E   0.76153  0.14175  0.75503
E80   E   0.76153  0.85825  0.74497
E81   E   0.76517  0.00000  0.25000
E82   E   0.79345  0.04345  0.12500
E83   E   0.79345  0.95655  0.37500
E84   E   0.85825  0.25503  0.73847
E85   E   0.85825  0.74497  0.76153
E86   E   0.87500  0.29345  0.45655
E87   E   0.87500  0.70655  0.04345
E88   E   0.89175  0.01153  0.49497
E89   E   0.89175  0.98847  0.00503
E90   E   0.95655  0.37500  0.79345
E91   E   0.95655  0.62500  0.70655
E92   E   0.98483  0.50000  0.75000
E93   E   0.98847  0.00503  0.89175
E94   E   0.98847  0.99497  0.60825
E95   E   0.99497  0.39175  0.51153
E96   E   0.99497  0.60825  0.98847
loop_
