data_fab_Fm-3m  hall_number: 523, V_con: 6, EC_con: 5
_audit_creation_date              2025-03-06
_audit_creation_method            'MOFbuilder_1.0'
_symmetry_space_group_name_H-M    'P1'
_symmetry_Int_Tables_number       1
_symmetry_cell_setting            triclinic
loop_
_symmetry_equiv_pos_as_xyz
  x,y,z
_cell_length_a                    34.1421
_cell_length_b                    34.1421
_cell_length_c                    34.1421
_cell_angle_alpha                 90.0
_cell_angle_beta                  90.0
_cell_angle_gamma                 90.0
loop_
_atom_site_label
_atom_site_type_symbol
_atom_site_fract_x
_atom_site_fract_y
_atom_site_fract_z
V1    V   0.00000  0.00000  0.00000
V2    V   0.00000  0.50000  0.50000
V3    V   0.50000  0.00000  0.50000
V4    V   0.50000  0.50000  0.00000
EC1    EC   0.00000  0.00000  0.29289
EC2    EC   0.00000  0.00000  0.70711
EC3    EC   0.00000  0.20711  0.50000
EC4    EC   0.00000  0.29289  0.00000
EC5    EC   0.00000  0.50000  0.20711
EC6    EC   0.00000  0.50000  0.79289
EC7    EC   0.00000  0.70711  0.00000
EC8    EC   0.00000  0.79289  0.50000
EC9    EC   0.20711  0.00000  0.50000
EC10   EC   0.20711  0.50000  0.00000
EC11   EC   0.29289  0.00000  0.00000
EC12   EC   0.29289  0.50000  0.50000
EC13   EC   0.50000  0.00000  0.20711
EC14   EC   0.50000  0.00000  0.79289
EC15   EC   0.50000  0.20711  0.00000
EC16   EC   0.50000  0.29289  0.50000
EC17   EC   0.50000  0.50000  0.29289
EC18   EC   0.50000  0.50000  0.70711
EC19   EC   0.50000  0.70711  0.50000
EC20   EC   0.50000  0.79289  0.00000
EC21   EC   0.70711  0.00000  0.00000
EC22   EC   0.70711  0.50000  0.50000
EC23   EC   0.79289  0.00000  0.50000
EC24   EC   0.79289  0.50000  0.00000
E1    E   0.00000  0.00000  0.14645
E2    E   0.00000  0.00000  0.85355
E3    E   0.00000  0.10355  0.39645
E4    E   0.00000  0.10355  0.60355
E5    E   0.00000  0.10355  0.39645
E6    E   0.00000  0.10355  0.60355
E7    E   0.00000  0.14645  0.00000
E8    E   0.00000  0.35355  0.50000
E9    E   0.00000  0.39645  0.10355
E10   E   0.00000  0.39645  0.89645
E11   E   0.00000  0.39645  0.10355
E12   E   0.00000  0.39645  0.89645
E13   E   0.00000  0.50000  0.35355
E14   E   0.00000  0.50000  0.64645
E15   E   0.00000  0.60355  0.10355
E16   E   0.00000  0.60355  0.10355
E17   E   0.00000  0.60355  0.89645
E18   E   0.00000  0.64645  0.50000
E19   E   0.00000  0.85355  0.00000
E20   E   0.00000  0.89645  0.39645
E21   E   0.00000  0.89645  0.39645
E22   E   0.00000  0.89645  0.60355
E23   E   0.10355  0.00000  0.39645
E24   E   0.10355  0.00000  0.60355
E25   E   0.10355  0.10355  0.50000
E26   E   0.10355  0.39645  0.00000
E27   E   0.10355  0.50000  0.10355
E28   E   0.10355  0.50000  0.89645
E29   E   0.10355  0.60355  0.00000
E30   E   0.10355  0.89645  0.50000
E31   E   0.10355  0.00000  0.39645
E32   E   0.10355  0.00000  0.60355
E33   E   0.10355  0.10355  0.50000
E34   E   0.10355  0.39645  0.00000
E35   E   0.10355  0.50000  0.10355
E36   E   0.10355  0.50000  0.89645
E37   E   0.10355  0.60355  0.00000
E38   E   0.10355  0.89645  0.50000
E39   E   0.14645  0.00000  0.00000
E40   E   0.14645  0.50000  0.50000
E41   E   0.35355  0.00000  0.50000
E42   E   0.35355  0.50000  0.00000
E43   E   0.39645  0.00000  0.10355
E44   E   0.39645  0.00000  0.89645
E45   E   0.39645  0.10355  0.00000
E46   E   0.39645  0.39645  0.50000
E47   E   0.39645  0.50000  0.39645
E48   E   0.39645  0.50000  0.60355
E49   E   0.39645  0.60355  0.50000
E50   E   0.39645  0.89645  0.00000
E51   E   0.39645  0.00000  0.10355
E52   E   0.39645  0.00000  0.89645
E53   E   0.39645  0.10355  0.00000
E54   E   0.39645  0.39645  0.50000
E55   E   0.39645  0.50000  0.39645
E56   E   0.39645  0.50000  0.60355
E57   E   0.39645  0.60355  0.50000
E58   E   0.39645  0.89645  0.00000
E59   E   0.50000  0.00000  0.35355
E60   E   0.50000  0.00000  0.64645
E61   E   0.50000  0.10355  0.10355
E62   E   0.50000  0.10355  0.89645
E63   E   0.50000  0.10355  0.10355
E64   E   0.50000  0.10355  0.89645
E65   E   0.50000  0.14645  0.50000
E66   E   0.50000  0.35355  0.00000
E67   E   0.50000  0.39645  0.39645
E68   E   0.50000  0.39645  0.60355
E69   E   0.50000  0.39645  0.39645
E70   E   0.50000  0.39645  0.60355
E71   E   0.50000  0.50000  0.14645
E72   E   0.50000  0.50000  0.85355
E73   E   0.50000  0.60355  0.39645
E74   E   0.50000  0.60355  0.39645
E75   E   0.50000  0.60355  0.60355
E76   E   0.50000  0.64645  0.00000
E77   E   0.50000  0.85355  0.50000
E78   E   0.50000  0.89645  0.10355
E79   E   0.50000  0.89645  0.10355
E80   E   0.50000  0.89645  0.89645
E81   E   0.60355  0.00000  0.10355
E82   E   0.60355  0.00000  0.10355
E83   E   0.60355  0.00000  0.89645
E84   E   0.60355  0.10355  0.00000
E85   E   0.60355  0.10355  0.00000
E86   E   0.60355  0.39645  0.50000
E87   E   0.60355  0.39645  0.50000
E88   E   0.60355  0.50000  0.39645
E89   E   0.60355  0.50000  0.39645
E90   E   0.60355  0.50000  0.60355
E91   E   0.60355  0.60355  0.50000
E92   E   0.60355  0.89645  0.00000
E93   E   0.64645  0.00000  0.50000
E94   E   0.64645  0.50000  0.00000
E95   E   0.85355  0.00000  0.00000
E96   E   0.85355  0.50000  0.50000
E97   E   0.89645  0.00000  0.39645
E98   E   0.89645  0.00000  0.39645
E99   E   0.89645  0.00000  0.60355
E100  E   0.89645  0.10355  0.50000
E101  E   0.89645  0.10355  0.50000
E102  E   0.89645  0.39645  0.00000
E103  E   0.89645  0.39645  0.00000
E104  E   0.89645  0.50000  0.10355
E105  E   0.89645  0.50000  0.10355
E106  E   0.89645  0.50000  0.89645
E107  E   0.89645  0.60355  0.00000
E108  E   0.89645  0.89645  0.50000
loop_
