data_fau_Fd-3m:2  hall_number: 526, V_con: 4
_audit_creation_date              2025-03-06
_audit_creation_method            'MOFbuilder_1.0'
_symmetry_space_group_name_H-M    'P1'
_symmetry_Int_Tables_number       1
_symmetry_cell_setting            triclinic
loop_
_symmetry_equiv_pos_as_xyz
  x,y,z
_cell_length_a                    79.6625
_cell_length_b                    79.6625
_cell_length_c                    79.6625
_cell_angle_alpha                 90.0
_cell_angle_beta                  90.0
_cell_angle_gamma                 90.0
loop_
_atom_site_label
_atom_site_type_symbol
_atom_site_fract_x
_atom_site_fract_y
_atom_site_fract_z
V1    V   0.03624  0.12500  0.44747
V2    V   0.03624  0.12500  0.80253
V3    V   0.03624  0.30253  0.62500
V4    V   0.03624  0.44747  0.12500
V5    V   0.03624  0.62500  0.30253
V6    V   0.03624  0.62500  0.94747
V7    V   0.03624  0.80253  0.12500
V8    V   0.03624  0.94747  0.62500
V9    V   0.05253  0.28624  0.87500
V10   V   0.05253  0.37500  0.78624
V11   V   0.05253  0.37500  0.96376
V12   V   0.05253  0.46376  0.87500
V13   V   0.05253  0.78624  0.37500
V14   V   0.05253  0.87500  0.28624
V15   V   0.05253  0.87500  0.46376
V16   V   0.05253  0.96376  0.37500
V17   V   0.12500  0.03624  0.44747
V18   V   0.12500  0.03624  0.80253
V19   V   0.12500  0.21376  0.44747
V20   V   0.12500  0.21376  0.80253
V21   V   0.12500  0.30253  0.53624
V22   V   0.12500  0.30253  0.71376
V23   V   0.12500  0.44747  0.03624
V24   V   0.12500  0.44747  0.21376
V25   V   0.12500  0.53624  0.30253
V26   V   0.12500  0.53624  0.94747
V27   V   0.12500  0.71376  0.30253
V28   V   0.12500  0.71376  0.94747
V29   V   0.12500  0.80253  0.03624
V30   V   0.12500  0.80253  0.21376
V31   V   0.12500  0.94747  0.53624
V32   V   0.12500  0.94747  0.71376
V33   V   0.19747  0.28624  0.37500
V34   V   0.19747  0.37500  0.28624
V35   V   0.19747  0.37500  0.46376
V36   V   0.19747  0.46376  0.37500
V37   V   0.19747  0.78624  0.87500
V38   V   0.19747  0.87500  0.78624
V39   V   0.19747  0.87500  0.96376
V40   V   0.19747  0.96376  0.87500
V41   V   0.21376  0.12500  0.44747
V42   V   0.21376  0.12500  0.80253
V43   V   0.21376  0.30253  0.62500
V44   V   0.21376  0.44747  0.12500
V45   V   0.21376  0.62500  0.30253
V46   V   0.21376  0.62500  0.94747
V47   V   0.21376  0.80253  0.12500
V48   V   0.21376  0.94747  0.62500
V49   V   0.28624  0.05253  0.87500
V50   V   0.28624  0.19747  0.37500
V51   V   0.28624  0.37500  0.19747
V52   V   0.28624  0.37500  0.55253
V53   V   0.28624  0.55253  0.37500
V54   V   0.28624  0.69747  0.87500
V55   V   0.28624  0.87500  0.05253
V56   V   0.28624  0.87500  0.69747
V57   V   0.30253  0.03624  0.62500
V58   V   0.30253  0.12500  0.53624
V59   V   0.30253  0.12500  0.71376
V60   V   0.30253  0.21376  0.62500
V61   V   0.30253  0.53624  0.12500
V62   V   0.30253  0.62500  0.03624
V63   V   0.30253  0.62500  0.21376
V64   V   0.30253  0.71376  0.12500
V65   V   0.37500  0.05253  0.78624
V66   V   0.37500  0.05253  0.96376
V67   V   0.37500  0.19747  0.28624
V68   V   0.37500  0.19747  0.46376
V69   V   0.37500  0.28624  0.19747
V70   V   0.37500  0.28624  0.55253
V71   V   0.37500  0.46376  0.19747
V72   V   0.37500  0.46376  0.55253
V73   V   0.37500  0.55253  0.28624
V74   V   0.37500  0.55253  0.46376
V75   V   0.37500  0.69747  0.78624
V76   V   0.37500  0.69747  0.96376
V77   V   0.37500  0.78624  0.05253
V78   V   0.37500  0.78624  0.69747
V79   V   0.37500  0.96376  0.05253
V80   V   0.37500  0.96376  0.69747
V81   V   0.44747  0.03624  0.12500
V82   V   0.44747  0.12500  0.03624
V83   V   0.44747  0.12500  0.21376
V84   V   0.44747  0.21376  0.12500
V85   V   0.44747  0.53624  0.62500
V86   V   0.44747  0.62500  0.53624
V87   V   0.44747  0.62500  0.71376
V88   V   0.44747  0.71376  0.62500
V89   V   0.46376  0.05253  0.87500
V90   V   0.46376  0.19747  0.37500
V91   V   0.46376  0.37500  0.19747
V92   V   0.46376  0.37500  0.55253
V93   V   0.46376  0.55253  0.37500
V94   V   0.46376  0.69747  0.87500
V95   V   0.46376  0.87500  0.05253
V96   V   0.46376  0.87500  0.69747
V97   V   0.53624  0.12500  0.30253
V98   V   0.53624  0.12500  0.94747
V99   V   0.53624  0.30253  0.12500
V100  V   0.53624  0.44747  0.62500
V101  V   0.53624  0.62500  0.44747
V102  V   0.53624  0.62500  0.80253
V103  V   0.53624  0.80253  0.62500
V104  V   0.53624  0.94747  0.12500
V105  V   0.55253  0.28624  0.37500
V106  V   0.55253  0.37500  0.28624
V107  V   0.55253  0.37500  0.46376
V108  V   0.55253  0.46376  0.37500
V109  V   0.55253  0.78624  0.87500
V110  V   0.55253  0.87500  0.78624
V111  V   0.55253  0.87500  0.96376
V112  V   0.55253  0.96376  0.87500
V113  V   0.62500  0.03624  0.30253
V114  V   0.62500  0.03624  0.94747
V115  V   0.62500  0.21376  0.30253
V116  V   0.62500  0.21376  0.94747
V117  V   0.62500  0.30253  0.03624
V118  V   0.62500  0.30253  0.21376
V119  V   0.62500  0.44747  0.53624
V120  V   0.62500  0.44747  0.71376
V121  V   0.62500  0.53624  0.44747
V122  V   0.62500  0.53624  0.80253
V123  V   0.62500  0.71376  0.44747
V124  V   0.62500  0.71376  0.80253
V125  V   0.62500  0.80253  0.53624
V126  V   0.62500  0.80253  0.71376
V127  V   0.62500  0.94747  0.03624
V128  V   0.62500  0.94747  0.21376
V129  V   0.69747  0.28624  0.87500
V130  V   0.69747  0.37500  0.78624
V131  V   0.69747  0.37500  0.96376
V132  V   0.69747  0.46376  0.87500
V133  V   0.69747  0.78624  0.37500
V134  V   0.69747  0.87500  0.28624
V135  V   0.69747  0.87500  0.46376
V136  V   0.69747  0.96376  0.37500
V137  V   0.71376  0.12500  0.30253
V138  V   0.71376  0.12500  0.94747
V139  V   0.71376  0.30253  0.12500
V140  V   0.71376  0.44747  0.62500
V141  V   0.71376  0.62500  0.44747
V142  V   0.71376  0.62500  0.80253
V143  V   0.71376  0.80253  0.62500
V144  V   0.71376  0.94747  0.12500
V145  V   0.78624  0.05253  0.37500
V146  V   0.78624  0.19747  0.87500
V147  V   0.78624  0.37500  0.05253
V148  V   0.78624  0.37500  0.69747
V149  V   0.78624  0.55253  0.87500
V150  V   0.78624  0.69747  0.37500
V151  V   0.78624  0.87500  0.19747
V152  V   0.78624  0.87500  0.55253
V153  V   0.80253  0.03624  0.12500
V154  V   0.80253  0.12500  0.03624
V155  V   0.80253  0.12500  0.21376
V156  V   0.80253  0.21376  0.12500
V157  V   0.80253  0.53624  0.62500
V158  V   0.80253  0.62500  0.53624
V159  V   0.80253  0.62500  0.71376
V160  V   0.80253  0.71376  0.62500
V161  V   0.87500  0.05253  0.28624
V162  V   0.87500  0.05253  0.46376
V163  V   0.87500  0.19747  0.78624
V164  V   0.87500  0.19747  0.96376
V165  V   0.87500  0.28624  0.05253
V166  V   0.87500  0.28624  0.69747
V167  V   0.87500  0.46376  0.05253
V168  V   0.87500  0.46376  0.69747
V169  V   0.87500  0.55253  0.78624
V170  V   0.87500  0.55253  0.96376
V171  V   0.87500  0.69747  0.28624
V172  V   0.87500  0.69747  0.46376
V173  V   0.87500  0.78624  0.19747
V174  V   0.87500  0.78624  0.55253
V175  V   0.87500  0.96376  0.19747
V176  V   0.87500  0.96376  0.55253
V177  V   0.94747  0.03624  0.62500
V178  V   0.94747  0.12500  0.53624
V179  V   0.94747  0.12500  0.71376
V180  V   0.94747  0.21376  0.62500
V181  V   0.94747  0.53624  0.12500
V182  V   0.94747  0.62500  0.03624
V183  V   0.94747  0.62500  0.21376
V184  V   0.94747  0.71376  0.12500
V185  V   0.96376  0.05253  0.37500
V186  V   0.96376  0.19747  0.87500
V187  V   0.96376  0.37500  0.05253
V188  V   0.96376  0.37500  0.69747
V189  V   0.96376  0.55253  0.87500
V190  V   0.96376  0.69747  0.37500
V191  V   0.96376  0.87500  0.19747
V192  V   0.96376  0.87500  0.55253
E1    E   0.00000  0.08876  0.41124
E2    E   0.00000  0.16124  0.83876
E3    E   0.00000  0.16124  0.83876
E4    E   0.00000  0.33876  0.66124
E5    E   0.00000  0.41124  0.08876
E6    E   0.00000  0.58876  0.91124
E7    E   0.00000  0.66124  0.33876
E8    E   0.00000  0.83876  0.16124
E9    E   0.00000  0.83876  0.16124
E10   E   0.00000  0.91124  0.58876
E11   E   0.00814  0.00814  0.37500
E12   E   0.00814  0.24186  0.87500
E13   E   0.00814  0.37500  0.00814
E14   E   0.00814  0.37500  0.74186
E15   E   0.00814  0.50814  0.87500
E16   E   0.00814  0.74186  0.37500
E17   E   0.00814  0.87500  0.24186
E18   E   0.00814  0.87500  0.50814
E19   E   0.00814  0.00814  0.37500
E20   E   0.00814  0.24186  0.87500
E21   E   0.00814  0.37500  0.00814
E22   E   0.00814  0.37500  0.74186
E23   E   0.00814  0.50814  0.87500
E24   E   0.00814  0.74186  0.37500
E25   E   0.00814  0.87500  0.24186
E26   E   0.00814  0.87500  0.50814
E27   E   0.05253  0.33062  0.83062
E28   E   0.05253  0.33062  0.91938
E29   E   0.05253  0.41938  0.83062
E30   E   0.05253  0.41938  0.91938
E31   E   0.05253  0.83062  0.33062
E32   E   0.05253  0.83062  0.41938
E33   E   0.05253  0.91938  0.33062
E34   E   0.05253  0.91938  0.41938
E35   E   0.08062  0.08062  0.44747
E36   E   0.08062  0.08062  0.80253
E37   E   0.08062  0.16938  0.44747
E38   E   0.08062  0.16938  0.80253
E39   E   0.08062  0.30253  0.58062
E40   E   0.08062  0.30253  0.66938
E41   E   0.08062  0.44747  0.08062
E42   E   0.08062  0.44747  0.16938
E43   E   0.08062  0.58062  0.30253
E44   E   0.08062  0.58062  0.94747
E45   E   0.08062  0.66938  0.30253
E46   E   0.08062  0.66938  0.94747
E47   E   0.08062  0.80253  0.08062
E48   E   0.08062  0.80253  0.16938
E49   E   0.08062  0.94747  0.58062
E50   E   0.08062  0.94747  0.66938
E51   E   0.08876  0.00000  0.41124
E52   E   0.08876  0.25000  0.83876
E53   E   0.08876  0.33876  0.75000
E54   E   0.08876  0.41124  0.00000
E55   E   0.08876  0.50000  0.91124
E56   E   0.08876  0.75000  0.33876
E57   E   0.08876  0.83876  0.25000
E58   E   0.08876  0.91124  0.50000
E59   E   0.12500  0.25814  0.49186
E60   E   0.12500  0.25814  0.75814
E61   E   0.12500  0.49186  0.25814
E62   E   0.12500  0.49186  0.99186
E63   E   0.12500  0.75814  0.25814
E64   E   0.12500  0.75814  0.99186
E65   E   0.12500  0.99186  0.49186
E66   E   0.12500  0.99186  0.75814
E67   E   0.16124  0.00000  0.83876
E68   E   0.16124  0.25000  0.41124
E69   E   0.16124  0.33876  0.50000
E70   E   0.16124  0.41124  0.25000
E71   E   0.16124  0.50000  0.33876
E72   E   0.16124  0.75000  0.91124
E73   E   0.16124  0.83876  0.00000
E74   E   0.16124  0.91124  0.75000
E75   E   0.16124  0.00000  0.83876
E76   E   0.16124  0.25000  0.41124
E77   E   0.16124  0.33876  0.50000
E78   E   0.16124  0.41124  0.25000
E79   E   0.16124  0.50000  0.33876
E80   E   0.16124  0.75000  0.91124
E81   E   0.16124  0.83876  0.00000
E82   E   0.16124  0.91124  0.75000
E83   E   0.16938  0.08062  0.44747
E84   E   0.16938  0.08062  0.80253
E85   E   0.16938  0.16938  0.44747
E86   E   0.16938  0.16938  0.80253
E87   E   0.16938  0.30253  0.58062
E88   E   0.16938  0.30253  0.66938
E89   E   0.16938  0.44747  0.08062
E90   E   0.16938  0.44747  0.16938
E91   E   0.16938  0.58062  0.30253
E92   E   0.16938  0.58062  0.94747
E93   E   0.16938  0.66938  0.30253
E94   E   0.16938  0.66938  0.94747
E95   E   0.16938  0.80253  0.08062
E96   E   0.16938  0.80253  0.16938
E97   E   0.16938  0.94747  0.58062
E98   E   0.16938  0.94747  0.66938
E99   E   0.19747  0.33062  0.33062
E100  E   0.19747  0.33062  0.41938
E101  E   0.19747  0.41938  0.33062
E102  E   0.19747  0.41938  0.41938
E103  E   0.19747  0.83062  0.83062
E104  E   0.19747  0.83062  0.91938
E105  E   0.19747  0.91938  0.83062
E106  E   0.19747  0.91938  0.91938
E107  E   0.24186  0.00814  0.87500
E108  E   0.24186  0.24186  0.37500
E109  E   0.24186  0.37500  0.24186
E110  E   0.24186  0.37500  0.50814
E111  E   0.24186  0.50814  0.37500
E112  E   0.24186  0.74186  0.87500
E113  E   0.24186  0.87500  0.00814
E114  E   0.24186  0.87500  0.74186
E115  E   0.24186  0.00814  0.87500
E116  E   0.24186  0.24186  0.37500
E117  E   0.24186  0.37500  0.24186
E118  E   0.24186  0.37500  0.50814
E119  E   0.24186  0.50814  0.37500
E120  E   0.24186  0.74186  0.87500
E121  E   0.24186  0.87500  0.00814
E122  E   0.24186  0.87500  0.74186
E123  E   0.25000  0.08876  0.83876
E124  E   0.25000  0.16124  0.41124
E125  E   0.25000  0.16124  0.41124
E126  E   0.25000  0.33876  0.58876
E127  E   0.25000  0.41124  0.16124
E128  E   0.25000  0.41124  0.16124
E129  E   0.25000  0.58876  0.33876
E130  E   0.25000  0.66124  0.91124
E131  E   0.25000  0.83876  0.08876
E132  E   0.25000  0.91124  0.66124
E133  E   0.25814  0.12500  0.49186
E134  E   0.25814  0.12500  0.75814
E135  E   0.25814  0.25814  0.62500
E136  E   0.25814  0.49186  0.12500
E137  E   0.25814  0.62500  0.25814
E138  E   0.25814  0.62500  0.99186
E139  E   0.25814  0.75814  0.12500
E140  E   0.25814  0.99186  0.62500
E141  E   0.30253  0.08062  0.58062
E142  E   0.30253  0.08062  0.66938
E143  E   0.30253  0.16938  0.58062
E144  E   0.30253  0.16938  0.66938
E145  E   0.30253  0.58062  0.08062
E146  E   0.30253  0.58062  0.16938
E147  E   0.30253  0.66938  0.08062
E148  E   0.30253  0.66938  0.16938
E149  E   0.33062  0.05253  0.83062
E150  E   0.33062  0.05253  0.91938
E151  E   0.33062  0.19747  0.33062
E152  E   0.33062  0.19747  0.41938
E153  E   0.33062  0.33062  0.19747
E154  E   0.33062  0.33062  0.55253
E155  E   0.33062  0.41938  0.19747
E156  E   0.33062  0.41938  0.55253
E157  E   0.33062  0.55253  0.33062
E158  E   0.33062  0.55253  0.41938
E159  E   0.33062  0.69747  0.83062
E160  E   0.33062  0.69747  0.91938
E161  E   0.33062  0.83062  0.05253
E162  E   0.33062  0.83062  0.69747
E163  E   0.33062  0.91938  0.05253
E164  E   0.33062  0.91938  0.69747
E165  E   0.33876  0.00000  0.66124
E166  E   0.33876  0.08876  0.75000
E167  E   0.33876  0.16124  0.50000
E168  E   0.33876  0.16124  0.50000
E169  E   0.33876  0.25000  0.58876
E170  E   0.33876  0.50000  0.16124
E171  E   0.33876  0.50000  0.16124
E172  E   0.33876  0.58876  0.25000
E173  E   0.33876  0.66124  0.00000
E174  E   0.33876  0.75000  0.08876
E175  E   0.37500  0.00814  0.00814
E176  E   0.37500  0.00814  0.74186
E177  E   0.37500  0.00814  0.00814
E178  E   0.37500  0.00814  0.74186
E179  E   0.37500  0.24186  0.24186
E180  E   0.37500  0.24186  0.50814
E181  E   0.37500  0.24186  0.24186
E182  E   0.37500  0.24186  0.50814
E183  E   0.37500  0.50814  0.24186
E184  E   0.37500  0.50814  0.24186
E185  E   0.37500  0.50814  0.50814
E186  E   0.37500  0.74186  0.00814
E187  E   0.37500  0.74186  0.00814
E188  E   0.37500  0.74186  0.74186
E189  E   0.41124  0.00000  0.08876
E190  E   0.41124  0.08876  0.00000
E191  E   0.41124  0.16124  0.25000
E192  E   0.41124  0.16124  0.25000
E193  E   0.41124  0.25000  0.16124
E194  E   0.41124  0.25000  0.16124
E195  E   0.41124  0.50000  0.58876
E196  E   0.41124  0.58876  0.50000
E197  E   0.41124  0.66124  0.75000
E198  E   0.41124  0.75000  0.66124
E199  E   0.41938  0.05253  0.83062
E200  E   0.41938  0.05253  0.91938
E201  E   0.41938  0.19747  0.33062
E202  E   0.41938  0.19747  0.41938
E203  E   0.41938  0.33062  0.19747
E204  E   0.41938  0.33062  0.55253
E205  E   0.41938  0.41938  0.19747
E206  E   0.41938  0.41938  0.55253
E207  E   0.41938  0.55253  0.33062
E208  E   0.41938  0.55253  0.41938
E209  E   0.41938  0.69747  0.83062
E210  E   0.41938  0.69747  0.91938
E211  E   0.41938  0.83062  0.05253
E212  E   0.41938  0.83062  0.69747
E213  E   0.41938  0.91938  0.05253
E214  E   0.41938  0.91938  0.69747
E215  E   0.44747  0.08062  0.08062
E216  E   0.44747  0.08062  0.16938
E217  E   0.44747  0.16938  0.08062
E218  E   0.44747  0.16938  0.16938
E219  E   0.44747  0.58062  0.58062
E220  E   0.44747  0.58062  0.66938
E221  E   0.44747  0.66938  0.58062
E222  E   0.44747  0.66938  0.66938
E223  E   0.49186  0.12500  0.25814
E224  E   0.49186  0.12500  0.99186
E225  E   0.49186  0.25814  0.12500
E226  E   0.49186  0.49186  0.62500
E227  E   0.49186  0.62500  0.49186
E228  E   0.49186  0.62500  0.75814
E229  E   0.49186  0.75814  0.62500
E230  E   0.49186  0.99186  0.12500
E231  E   0.50000  0.08876  0.91124
E232  E   0.50000  0.16124  0.33876
E233  E   0.50000  0.16124  0.33876
E234  E   0.50000  0.33876  0.16124
E235  E   0.50000  0.33876  0.16124
E236  E   0.50000  0.41124  0.58876
E237  E   0.50000  0.58876  0.41124
E238  E   0.50000  0.66124  0.83876
E239  E   0.50000  0.83876  0.66124
E240  E   0.50000  0.91124  0.08876
E241  E   0.50814  0.00814  0.87500
E242  E   0.50814  0.00814  0.87500
E243  E   0.50814  0.24186  0.37500
E244  E   0.50814  0.24186  0.37500
E245  E   0.50814  0.37500  0.24186
E246  E   0.50814  0.37500  0.24186
E247  E   0.50814  0.37500  0.50814
E248  E   0.50814  0.50814  0.37500
E249  E   0.50814  0.74186  0.87500
E250  E   0.50814  0.87500  0.00814
E251  E   0.50814  0.87500  0.00814
E252  E   0.50814  0.87500  0.74186
E253  E   0.55253  0.33062  0.33062
E254  E   0.55253  0.33062  0.41938
E255  E   0.55253  0.41938  0.33062
E256  E   0.55253  0.41938  0.41938
E257  E   0.55253  0.83062  0.83062
E258  E   0.55253  0.83062  0.91938
E259  E   0.55253  0.91938  0.83062
E260  E   0.55253  0.91938  0.91938
E261  E   0.58062  0.08062  0.30253
E262  E   0.58062  0.08062  0.94747
E263  E   0.58062  0.16938  0.30253
E264  E   0.58062  0.16938  0.94747
E265  E   0.58062  0.30253  0.08062
E266  E   0.58062  0.30253  0.16938
E267  E   0.58062  0.44747  0.58062
E268  E   0.58062  0.44747  0.66938
E269  E   0.58062  0.58062  0.44747
E270  E   0.58062  0.58062  0.80253
E271  E   0.58062  0.66938  0.44747
E272  E   0.58062  0.66938  0.80253
E273  E   0.58062  0.80253  0.58062
E274  E   0.58062  0.80253  0.66938
E275  E   0.58062  0.94747  0.08062
E276  E   0.58062  0.94747  0.16938
E277  E   0.58876  0.00000  0.91124
E278  E   0.58876  0.25000  0.33876
E279  E   0.58876  0.33876  0.25000
E280  E   0.58876  0.41124  0.50000
E281  E   0.58876  0.50000  0.41124
E282  E   0.58876  0.75000  0.83876
E283  E   0.58876  0.83876  0.75000
E284  E   0.58876  0.91124  0.00000
E285  E   0.62500  0.25814  0.25814
E286  E   0.62500  0.25814  0.99186
E287  E   0.62500  0.49186  0.49186
E288  E   0.62500  0.49186  0.75814
E289  E   0.62500  0.75814  0.49186
E290  E   0.62500  0.75814  0.75814
E291  E   0.62500  0.99186  0.25814
E292  E   0.62500  0.99186  0.99186
E293  E   0.66124  0.00000  0.33876
E294  E   0.66124  0.25000  0.91124
E295  E   0.66124  0.33876  0.00000
E296  E   0.66124  0.41124  0.75000
E297  E   0.66124  0.50000  0.83876
E298  E   0.66124  0.75000  0.41124
E299  E   0.66124  0.83876  0.50000
E300  E   0.66124  0.91124  0.25000
E301  E   0.66938  0.08062  0.30253
E302  E   0.66938  0.08062  0.94747
E303  E   0.66938  0.16938  0.30253
E304  E   0.66938  0.16938  0.94747
E305  E   0.66938  0.30253  0.08062
E306  E   0.66938  0.30253  0.16938
E307  E   0.66938  0.44747  0.58062
E308  E   0.66938  0.44747  0.66938
E309  E   0.66938  0.58062  0.44747
E310  E   0.66938  0.58062  0.80253
E311  E   0.66938  0.66938  0.44747
E312  E   0.66938  0.66938  0.80253
E313  E   0.66938  0.80253  0.58062
E314  E   0.66938  0.80253  0.66938
E315  E   0.66938  0.94747  0.08062
E316  E   0.66938  0.94747  0.16938
E317  E   0.69747  0.33062  0.83062
E318  E   0.69747  0.33062  0.91938
E319  E   0.69747  0.41938  0.83062
E320  E   0.69747  0.41938  0.91938
E321  E   0.69747  0.83062  0.33062
E322  E   0.69747  0.83062  0.41938
E323  E   0.69747  0.91938  0.33062
E324  E   0.69747  0.91938  0.41938
E325  E   0.74186  0.00814  0.37500
E326  E   0.74186  0.00814  0.37500
E327  E   0.74186  0.24186  0.87500
E328  E   0.74186  0.24186  0.87500
E329  E   0.74186  0.37500  0.00814
E330  E   0.74186  0.37500  0.00814
E331  E   0.74186  0.37500  0.74186
E332  E   0.74186  0.50814  0.87500
E333  E   0.74186  0.74186  0.37500
E334  E   0.74186  0.87500  0.24186
E335  E   0.74186  0.87500  0.24186
E336  E   0.74186  0.87500  0.50814
E337  E   0.75000  0.08876  0.33876
E338  E   0.75000  0.16124  0.91124
E339  E   0.75000  0.16124  0.91124
E340  E   0.75000  0.33876  0.08876
E341  E   0.75000  0.41124  0.66124
E342  E   0.75000  0.58876  0.83876
E343  E   0.75000  0.66124  0.41124
E344  E   0.75000  0.83876  0.58876
E345  E   0.75000  0.91124  0.16124
E346  E   0.75000  0.91124  0.16124
E347  E   0.75814  0.12500  0.25814
E348  E   0.75814  0.12500  0.99186
E349  E   0.75814  0.25814  0.12500
E350  E   0.75814  0.49186  0.62500
E351  E   0.75814  0.62500  0.49186
E352  E   0.75814  0.62500  0.75814
E353  E   0.75814  0.75814  0.62500
E354  E   0.75814  0.99186  0.12500
E355  E   0.80253  0.08062  0.08062
E356  E   0.80253  0.08062  0.16938
E357  E   0.80253  0.16938  0.08062
E358  E   0.80253  0.16938  0.16938
E359  E   0.80253  0.58062  0.58062
E360  E   0.80253  0.58062  0.66938
E361  E   0.80253  0.66938  0.58062
E362  E   0.80253  0.66938  0.66938
E363  E   0.83062  0.05253  0.33062
E364  E   0.83062  0.05253  0.41938
E365  E   0.83062  0.19747  0.83062
E366  E   0.83062  0.19747  0.91938
E367  E   0.83062  0.33062  0.05253
E368  E   0.83062  0.33062  0.69747
E369  E   0.83062  0.41938  0.05253
E370  E   0.83062  0.41938  0.69747
E371  E   0.83062  0.55253  0.83062
E372  E   0.83062  0.55253  0.91938
E373  E   0.83062  0.69747  0.33062
E374  E   0.83062  0.69747  0.41938
E375  E   0.83062  0.83062  0.19747
E376  E   0.83062  0.83062  0.55253
E377  E   0.83062  0.91938  0.19747
E378  E   0.83062  0.91938  0.55253
E379  E   0.83876  0.00000  0.16124
E380  E   0.83876  0.00000  0.16124
E381  E   0.83876  0.08876  0.25000
E382  E   0.83876  0.16124  0.00000
E383  E   0.83876  0.16124  0.00000
E384  E   0.83876  0.25000  0.08876
E385  E   0.83876  0.50000  0.66124
E386  E   0.83876  0.58876  0.75000
E387  E   0.83876  0.66124  0.50000
E388  E   0.83876  0.75000  0.58876
E389  E   0.87500  0.00814  0.24186
E390  E   0.87500  0.00814  0.50814
E391  E   0.87500  0.00814  0.24186
E392  E   0.87500  0.00814  0.50814
E393  E   0.87500  0.24186  0.00814
E394  E   0.87500  0.24186  0.74186
E395  E   0.87500  0.24186  0.00814
E396  E   0.87500  0.24186  0.74186
E397  E   0.87500  0.50814  0.00814
E398  E   0.87500  0.50814  0.00814
E399  E   0.87500  0.50814  0.74186
E400  E   0.87500  0.74186  0.24186
E401  E   0.87500  0.74186  0.24186
E402  E   0.87500  0.74186  0.50814
E403  E   0.91124  0.00000  0.58876
E404  E   0.91124  0.08876  0.50000
E405  E   0.91124  0.16124  0.75000
E406  E   0.91124  0.16124  0.75000
E407  E   0.91124  0.25000  0.66124
E408  E   0.91124  0.50000  0.08876
E409  E   0.91124  0.58876  0.00000
E410  E   0.91124  0.66124  0.25000
E411  E   0.91124  0.75000  0.16124
E412  E   0.91124  0.75000  0.16124
E413  E   0.91938  0.05253  0.33062
E414  E   0.91938  0.05253  0.41938
E415  E   0.91938  0.19747  0.83062
E416  E   0.91938  0.19747  0.91938
E417  E   0.91938  0.33062  0.05253
E418  E   0.91938  0.33062  0.69747
E419  E   0.91938  0.41938  0.05253
E420  E   0.91938  0.41938  0.69747
E421  E   0.91938  0.55253  0.83062
E422  E   0.91938  0.55253  0.91938
E423  E   0.91938  0.69747  0.33062
E424  E   0.91938  0.69747  0.41938
E425  E   0.91938  0.83062  0.19747
E426  E   0.91938  0.83062  0.55253
E427  E   0.91938  0.91938  0.19747
E428  E   0.91938  0.91938  0.55253
E429  E   0.94747  0.08062  0.58062
E430  E   0.94747  0.08062  0.66938
E431  E   0.94747  0.16938  0.58062
E432  E   0.94747  0.16938  0.66938
E433  E   0.94747  0.58062  0.08062
E434  E   0.94747  0.58062  0.16938
E435  E   0.94747  0.66938  0.08062
E436  E   0.94747  0.66938  0.16938
E437  E   0.99186  0.12500  0.49186
E438  E   0.99186  0.12500  0.75814
E439  E   0.99186  0.25814  0.62500
E440  E   0.99186  0.49186  0.12500
E441  E   0.99186  0.62500  0.25814
E442  E   0.99186  0.62500  0.99186
E443  E   0.99186  0.75814  0.12500
E444  E   0.99186  0.99186  0.62500
loop_
