data_fcd_Ia-3  hall_number: 502, V_con: 5
_audit_creation_date              2025-03-06
_audit_creation_method            'MOFbuilder_1.0'
_symmetry_space_group_name_H-M    'P1'
_symmetry_Int_Tables_number       1
_symmetry_cell_setting            triclinic
loop_
_symmetry_equiv_pos_as_xyz
  x,y,z
_cell_length_a                    42.9649
_cell_length_b                    42.9649
_cell_length_c                    42.9649
_cell_angle_alpha                 90.0
_cell_angle_beta                  90.0
_cell_angle_gamma                 90.0
loop_
_atom_site_label
_atom_site_type_symbol
_atom_site_fract_x
_atom_site_fract_y
_atom_site_fract_z
V1    V   0.09440  0.09873  0.81161
V2    V   0.09440  0.40127  0.31161
V3    V   0.09440  0.59873  0.18839
V4    V   0.09440  0.90127  0.68839
V5    V   0.09873  0.18839  0.40560
V6    V   0.09873  0.31161  0.90560
V7    V   0.09873  0.68839  0.59440
V8    V   0.09873  0.81161  0.09440
V9    V   0.18839  0.09440  0.59873
V10   V   0.18839  0.40560  0.09873
V11   V   0.18839  0.59440  0.40127
V12   V   0.18839  0.90560  0.90127
V13   V   0.31161  0.09440  0.40127
V14   V   0.31161  0.40560  0.90127
V15   V   0.31161  0.59440  0.59873
V16   V   0.31161  0.90560  0.09873
V17   V   0.40127  0.18839  0.59440
V18   V   0.40127  0.31161  0.09440
V19   V   0.40127  0.68839  0.40560
V20   V   0.40127  0.81161  0.90560
V21   V   0.40560  0.09873  0.18839
V22   V   0.40560  0.40127  0.68839
V23   V   0.40560  0.59873  0.81161
V24   V   0.40560  0.90127  0.31161
V25   V   0.59440  0.09873  0.68839
V26   V   0.59440  0.40127  0.18839
V27   V   0.59440  0.59873  0.31161
V28   V   0.59440  0.90127  0.81161
V29   V   0.59873  0.18839  0.09440
V30   V   0.59873  0.31161  0.59440
V31   V   0.59873  0.68839  0.90560
V32   V   0.59873  0.81161  0.40560
V33   V   0.68839  0.09440  0.90127
V34   V   0.68839  0.40560  0.40127
V35   V   0.68839  0.59440  0.09873
V36   V   0.68839  0.90560  0.59873
V37   V   0.81161  0.09440  0.09873
V38   V   0.81161  0.40560  0.59873
V39   V   0.81161  0.59440  0.90127
V40   V   0.81161  0.90560  0.40127
V41   V   0.90127  0.18839  0.90560
V42   V   0.90127  0.31161  0.40560
V43   V   0.90127  0.68839  0.09440
V44   V   0.90127  0.81161  0.59440
V45   V   0.90560  0.09873  0.31161
V46   V   0.90560  0.40127  0.81161
V47   V   0.90560  0.59873  0.68839
V48   V   0.90560  0.90127  0.18839
E1    E   0.00000  0.25000  0.40560
E2    E   0.00000  0.25000  0.90560
E3    E   0.00000  0.75000  0.09440
E4    E   0.00000  0.75000  0.59440
E5    E   0.00216  0.14356  0.35860
E6    E   0.00216  0.35644  0.85860
E7    E   0.00216  0.64356  0.64140
E8    E   0.00216  0.85644  0.14140
E9    E   0.09440  0.00000  0.75000
E10   E   0.09440  0.50000  0.25000
E11   E   0.09656  0.20517  0.85860
E12   E   0.09656  0.29483  0.35860
E13   E   0.09656  0.70517  0.14140
E14   E   0.09656  0.79483  0.64140
E15   E   0.14140  0.00216  0.85644
E16   E   0.14140  0.49784  0.35644
E17   E   0.14140  0.50216  0.14356
E18   E   0.14140  0.99784  0.64356
E19   E   0.14140  0.09656  0.70517
E20   E   0.14140  0.40344  0.20517
E21   E   0.14140  0.59656  0.29483
E22   E   0.14140  0.90344  0.79483
E23   E   0.14356  0.14140  0.50216
E24   E   0.14356  0.35860  0.00216
E25   E   0.14356  0.64140  0.49784
E26   E   0.14356  0.85860  0.99784
E27   E   0.20517  0.14140  0.40344
E28   E   0.20517  0.35860  0.90344
E29   E   0.20517  0.64140  0.59656
E30   E   0.20517  0.85860  0.09656
E31   E   0.25000  0.09440  0.50000
E32   E   0.25000  0.40560  0.00000
E33   E   0.25000  0.59440  0.50000
E34   E   0.25000  0.90560  0.00000
E35   E   0.29483  0.14140  0.59656
E36   E   0.29483  0.35860  0.09656
E37   E   0.29483  0.64140  0.40344
E38   E   0.29483  0.85860  0.90344
E39   E   0.35644  0.14140  0.49784
E40   E   0.35644  0.35860  0.99784
E41   E   0.35644  0.64140  0.50216
E42   E   0.35644  0.85860  0.00216
E43   E   0.35860  0.09656  0.29483
E44   E   0.35860  0.40344  0.79483
E45   E   0.35860  0.59656  0.70517
E46   E   0.35860  0.90344  0.20517
E47   E   0.35860  0.00216  0.14356
E48   E   0.35860  0.49784  0.64356
E49   E   0.35860  0.50216  0.85644
E50   E   0.35860  0.99784  0.35644
E51   E   0.40344  0.20517  0.14140
E52   E   0.40344  0.29483  0.64140
E53   E   0.40344  0.70517  0.85860
E54   E   0.40344  0.79483  0.35860
E55   E   0.40560  0.00000  0.25000
E56   E   0.40560  0.50000  0.75000
E57   E   0.49784  0.14356  0.64140
E58   E   0.49784  0.35644  0.14140
E59   E   0.49784  0.64356  0.35860
E60   E   0.49784  0.85644  0.85860
E61   E   0.50000  0.25000  0.09440
E62   E   0.50000  0.25000  0.59440
E63   E   0.50000  0.75000  0.40560
E64   E   0.50000  0.75000  0.90560
E65   E   0.50216  0.14356  0.14140
E66   E   0.50216  0.35644  0.64140
E67   E   0.50216  0.64356  0.85860
E68   E   0.50216  0.85644  0.35860
E69   E   0.59440  0.00000  0.75000
E70   E   0.59440  0.50000  0.25000
E71   E   0.59656  0.20517  0.64140
E72   E   0.59656  0.29483  0.14140
E73   E   0.59656  0.70517  0.35860
E74   E   0.59656  0.79483  0.85860
E75   E   0.64140  0.00216  0.64356
E76   E   0.64140  0.09656  0.79483
E77   E   0.64140  0.40344  0.29483
E78   E   0.64140  0.49784  0.14356
E79   E   0.64140  0.50216  0.35644
E80   E   0.64140  0.59656  0.20517
E81   E   0.64140  0.90344  0.70517
E82   E   0.64140  0.99784  0.85644
E83   E   0.64356  0.14140  0.99784
E84   E   0.64356  0.35860  0.49784
E85   E   0.64356  0.64140  0.00216
E86   E   0.64356  0.85860  0.50216
E87   E   0.70517  0.14140  0.09656
E88   E   0.70517  0.35860  0.59656
E89   E   0.70517  0.64140  0.90344
E90   E   0.70517  0.85860  0.40344
E91   E   0.75000  0.09440  0.00000
E92   E   0.75000  0.40560  0.50000
E93   E   0.75000  0.59440  0.00000
E94   E   0.75000  0.90560  0.50000
E95   E   0.79483  0.14140  0.90344
E96   E   0.79483  0.35860  0.40344
E97   E   0.79483  0.64140  0.09656
E98   E   0.79483  0.85860  0.59656
E99   E   0.85644  0.14140  0.00216
E100  E   0.85644  0.35860  0.50216
E101  E   0.85644  0.64140  0.99784
E102  E   0.85644  0.85860  0.49784
E103  E   0.85860  0.00216  0.35644
E104  E   0.85860  0.09656  0.20517
E105  E   0.85860  0.40344  0.70517
E106  E   0.85860  0.49784  0.85644
E107  E   0.85860  0.50216  0.64356
E108  E   0.85860  0.59656  0.79483
E109  E   0.85860  0.90344  0.29483
E110  E   0.85860  0.99784  0.14356
E111  E   0.90344  0.20517  0.35860
E112  E   0.90344  0.29483  0.85860
E113  E   0.90344  0.70517  0.64140
E114  E   0.90344  0.79483  0.14140
E115  E   0.90560  0.00000  0.25000
E116  E   0.90560  0.50000  0.75000
E117  E   0.99784  0.14356  0.85860
E118  E   0.99784  0.35644  0.35860
E119  E   0.99784  0.64356  0.14140
E120  E   0.99784  0.85644  0.64140
loop_
