data_fcf_F4132  hall_number: 506, V_con: 5
_audit_creation_date              2025-03-06
_audit_creation_method            'MOFbuilder_1.0'
_symmetry_space_group_name_H-M    'P1'
_symmetry_Int_Tables_number       1
_symmetry_cell_setting            triclinic
loop_
_symmetry_equiv_pos_as_xyz
  x,y,z
_cell_length_a                    58.4871
_cell_length_b                    58.4871
_cell_length_c                    58.4871
_cell_angle_alpha                 90.0
_cell_angle_beta                  90.0
_cell_angle_gamma                 90.0
loop_
_atom_site_label
_atom_site_type_symbol
_atom_site_fract_x
_atom_site_fract_y
_atom_site_fract_z
V1    V   0.00000  0.13381  0.39863
V2    V   0.00000  0.13381  0.60137
V3    V   0.00000  0.36619  0.10137
V4    V   0.00000  0.36619  0.89863
V5    V   0.00000  0.63381  0.10137
V6    V   0.00000  0.63381  0.89863
V7    V   0.00000  0.86619  0.39863
V8    V   0.00000  0.86619  0.60137
V9    V   0.10137  0.00000  0.36619
V10   V   0.10137  0.00000  0.63381
V11   V   0.10137  0.50000  0.13381
V12   V   0.10137  0.50000  0.86619
V13   V   0.11619  0.25000  0.64863
V14   V   0.11619  0.25000  0.85137
V15   V   0.11619  0.75000  0.14863
V16   V   0.11619  0.75000  0.35137
V17   V   0.13381  0.10137  0.50000
V18   V   0.13381  0.39863  0.00000
V19   V   0.13381  0.60137  0.00000
V20   V   0.13381  0.89863  0.50000
V21   V   0.14863  0.11619  0.75000
V22   V   0.14863  0.38381  0.75000
V23   V   0.14863  0.61619  0.25000
V24   V   0.14863  0.88381  0.25000
V25   V   0.25000  0.14863  0.61619
V26   V   0.25000  0.14863  0.88381
V27   V   0.25000  0.35137  0.61619
V28   V   0.25000  0.35137  0.88381
V29   V   0.25000  0.64863  0.11619
V30   V   0.25000  0.64863  0.38381
V31   V   0.25000  0.85137  0.11619
V32   V   0.25000  0.85137  0.38381
V33   V   0.35137  0.11619  0.75000
V34   V   0.35137  0.38381  0.75000
V35   V   0.35137  0.61619  0.25000
V36   V   0.35137  0.88381  0.25000
V37   V   0.36619  0.10137  0.00000
V38   V   0.36619  0.39863  0.50000
V39   V   0.36619  0.60137  0.50000
V40   V   0.36619  0.89863  0.00000
V41   V   0.38381  0.25000  0.64863
V42   V   0.38381  0.25000  0.85137
V43   V   0.38381  0.75000  0.14863
V44   V   0.38381  0.75000  0.35137
V45   V   0.39863  0.00000  0.13381
V46   V   0.39863  0.00000  0.86619
V47   V   0.39863  0.50000  0.36619
V48   V   0.39863  0.50000  0.63381
V49   V   0.50000  0.13381  0.10137
V50   V   0.50000  0.13381  0.89863
V51   V   0.50000  0.36619  0.39863
V52   V   0.50000  0.36619  0.60137
V53   V   0.50000  0.63381  0.39863
V54   V   0.50000  0.63381  0.60137
V55   V   0.50000  0.86619  0.10137
V56   V   0.50000  0.86619  0.89863
V57   V   0.60137  0.00000  0.13381
V58   V   0.60137  0.00000  0.86619
V59   V   0.60137  0.50000  0.36619
V60   V   0.60137  0.50000  0.63381
V61   V   0.61619  0.25000  0.14863
V62   V   0.61619  0.25000  0.35137
V63   V   0.61619  0.75000  0.64863
V64   V   0.61619  0.75000  0.85137
V65   V   0.63381  0.10137  0.00000
V66   V   0.63381  0.39863  0.50000
V67   V   0.63381  0.60137  0.50000
V68   V   0.63381  0.89863  0.00000
V69   V   0.64863  0.11619  0.25000
V70   V   0.64863  0.38381  0.25000
V71   V   0.64863  0.61619  0.75000
V72   V   0.64863  0.88381  0.75000
V73   V   0.75000  0.14863  0.11619
V74   V   0.75000  0.14863  0.38381
V75   V   0.75000  0.35137  0.11619
V76   V   0.75000  0.35137  0.38381
V77   V   0.75000  0.64863  0.61619
V78   V   0.75000  0.64863  0.88381
V79   V   0.75000  0.85137  0.61619
V80   V   0.75000  0.85137  0.88381
V81   V   0.85137  0.11619  0.25000
V82   V   0.85137  0.38381  0.25000
V83   V   0.85137  0.61619  0.75000
V84   V   0.85137  0.88381  0.75000
V85   V   0.86619  0.10137  0.50000
V86   V   0.86619  0.39863  0.00000
V87   V   0.86619  0.60137  0.00000
V88   V   0.86619  0.89863  0.50000
V89   V   0.88381  0.25000  0.14863
V90   V   0.88381  0.25000  0.35137
V91   V   0.88381  0.75000  0.64863
V92   V   0.88381  0.75000  0.85137
V93   V   0.89863  0.00000  0.36619
V94   V   0.89863  0.00000  0.63381
V95   V   0.89863  0.50000  0.13381
V96   V   0.89863  0.50000  0.86619
E1    E   0.05069  0.06690  0.38241
E2    E   0.05069  0.06690  0.61759
E3    E   0.05069  0.43310  0.11759
E4    E   0.05069  0.43310  0.88241
E5    E   0.05069  0.56690  0.11759
E6    E   0.05069  0.56690  0.88241
E7    E   0.05069  0.93310  0.38241
E8    E   0.05069  0.93310  0.61759
E9    E   0.05810  0.19190  0.62500
E10   E   0.05810  0.30810  0.87500
E11   E   0.05810  0.69190  0.12500
E12   E   0.05810  0.80810  0.37500
E13   E   0.05810  0.19190  0.62500
E14   E   0.05810  0.30810  0.87500
E15   E   0.05810  0.69190  0.12500
E16   E   0.05810  0.80810  0.37500
E17   E   0.06690  0.11759  0.44931
E18   E   0.06690  0.11759  0.55069
E19   E   0.06690  0.38241  0.05069
E20   E   0.06690  0.38241  0.94931
E21   E   0.06690  0.61759  0.05069
E22   E   0.06690  0.61759  0.94931
E23   E   0.06690  0.88241  0.44931
E24   E   0.06690  0.88241  0.55069
E25   E   0.11759  0.05069  0.43310
E26   E   0.11759  0.05069  0.56690
E27   E   0.11759  0.44931  0.06690
E28   E   0.11759  0.44931  0.93310
E29   E   0.11759  0.55069  0.06690
E30   E   0.11759  0.55069  0.93310
E31   E   0.11759  0.94931  0.43310
E32   E   0.11759  0.94931  0.56690
E33   E   0.12500  0.05810  0.69190
E34   E   0.12500  0.05810  0.69190
E35   E   0.12500  0.44190  0.80810
E36   E   0.12500  0.55810  0.19190
E37   E   0.12500  0.94190  0.30810
E38   E   0.13241  0.18310  0.69931
E39   E   0.13241  0.18310  0.80069
E40   E   0.13241  0.31690  0.69931
E41   E   0.13241  0.31690  0.80069
E42   E   0.13241  0.68310  0.19931
E43   E   0.13241  0.68310  0.30069
E44   E   0.13241  0.81690  0.19931
E45   E   0.13241  0.81690  0.30069
E46   E   0.18310  0.19931  0.63241
E47   E   0.18310  0.19931  0.86759
E48   E   0.18310  0.30069  0.63241
E49   E   0.18310  0.30069  0.86759
E50   E   0.18310  0.69931  0.13241
E51   E   0.18310  0.69931  0.36759
E52   E   0.18310  0.80069  0.13241
E53   E   0.18310  0.80069  0.36759
E54   E   0.19190  0.12500  0.55810
E55   E   0.19190  0.37500  0.94190
E56   E   0.19190  0.62500  0.05810
E57   E   0.19190  0.62500  0.05810
E58   E   0.19190  0.87500  0.44190
E59   E   0.19931  0.13241  0.68310
E60   E   0.19931  0.13241  0.81690
E61   E   0.19931  0.36759  0.68310
E62   E   0.19931  0.36759  0.81690
E63   E   0.19931  0.63241  0.18310
E64   E   0.19931  0.63241  0.31690
E65   E   0.19931  0.86759  0.18310
E66   E   0.19931  0.86759  0.31690
E67   E   0.30069  0.13241  0.68310
E68   E   0.30069  0.13241  0.81690
E69   E   0.30069  0.36759  0.68310
E70   E   0.30069  0.36759  0.81690
E71   E   0.30069  0.63241  0.18310
E72   E   0.30069  0.63241  0.31690
E73   E   0.30069  0.86759  0.18310
E74   E   0.30069  0.86759  0.31690
E75   E   0.30810  0.12500  0.94190
E76   E   0.30810  0.37500  0.55810
E77   E   0.30810  0.62500  0.44190
E78   E   0.30810  0.87500  0.05810
E79   E   0.30810  0.87500  0.05810
E80   E   0.31690  0.19931  0.63241
E81   E   0.31690  0.19931  0.86759
E82   E   0.31690  0.30069  0.63241
E83   E   0.31690  0.30069  0.86759
E84   E   0.31690  0.69931  0.13241
E85   E   0.31690  0.69931  0.36759
E86   E   0.31690  0.80069  0.13241
E87   E   0.31690  0.80069  0.36759
E88   E   0.36759  0.18310  0.69931
E89   E   0.36759  0.18310  0.80069
E90   E   0.36759  0.31690  0.69931
E91   E   0.36759  0.31690  0.80069
E92   E   0.36759  0.68310  0.19931
E93   E   0.36759  0.68310  0.30069
E94   E   0.36759  0.81690  0.19931
E95   E   0.36759  0.81690  0.30069
E96   E   0.37500  0.05810  0.80810
E97   E   0.37500  0.05810  0.80810
E98   E   0.37500  0.44190  0.69190
E99   E   0.37500  0.55810  0.30810
E100  E   0.37500  0.94190  0.19190
E101  E   0.38241  0.05069  0.06690
E102  E   0.38241  0.05069  0.93310
E103  E   0.38241  0.44931  0.43310
E104  E   0.38241  0.44931  0.56690
E105  E   0.38241  0.55069  0.43310
E106  E   0.38241  0.55069  0.56690
E107  E   0.38241  0.94931  0.06690
E108  E   0.38241  0.94931  0.93310
E109  E   0.43310  0.11759  0.05069
E110  E   0.43310  0.11759  0.94931
E111  E   0.43310  0.38241  0.44931
E112  E   0.43310  0.38241  0.55069
E113  E   0.43310  0.61759  0.44931
E114  E   0.43310  0.61759  0.55069
E115  E   0.43310  0.88241  0.05069
E116  E   0.43310  0.88241  0.94931
E117  E   0.44190  0.19190  0.87500
E118  E   0.44190  0.30810  0.62500
E119  E   0.44190  0.69190  0.37500
E120  E   0.44190  0.80810  0.12500
E121  E   0.44931  0.06690  0.11759
E122  E   0.44931  0.06690  0.88241
E123  E   0.44931  0.43310  0.38241
E124  E   0.44931  0.43310  0.61759
E125  E   0.44931  0.56690  0.38241
E126  E   0.44931  0.56690  0.61759
E127  E   0.44931  0.93310  0.11759
E128  E   0.44931  0.93310  0.88241
E129  E   0.55069  0.06690  0.11759
E130  E   0.55069  0.06690  0.88241
E131  E   0.55069  0.43310  0.38241
E132  E   0.55069  0.43310  0.61759
E133  E   0.55069  0.56690  0.38241
E134  E   0.55069  0.56690  0.61759
E135  E   0.55069  0.93310  0.11759
E136  E   0.55069  0.93310  0.88241
E137  E   0.55810  0.19190  0.12500
E138  E   0.55810  0.30810  0.37500
E139  E   0.55810  0.69190  0.62500
E140  E   0.55810  0.80810  0.87500
E141  E   0.56690  0.11759  0.05069
E142  E   0.56690  0.11759  0.94931
E143  E   0.56690  0.38241  0.44931
E144  E   0.56690  0.38241  0.55069
E145  E   0.56690  0.61759  0.44931
E146  E   0.56690  0.61759  0.55069
E147  E   0.56690  0.88241  0.05069
E148  E   0.56690  0.88241  0.94931
E149  E   0.61759  0.05069  0.06690
E150  E   0.61759  0.05069  0.93310
E151  E   0.61759  0.44931  0.43310
E152  E   0.61759  0.44931  0.56690
E153  E   0.61759  0.55069  0.43310
E154  E   0.61759  0.55069  0.56690
E155  E   0.61759  0.94931  0.06690
E156  E   0.61759  0.94931  0.93310
E157  E   0.62500  0.05810  0.19190
E158  E   0.62500  0.05810  0.19190
E159  E   0.62500  0.44190  0.30810
E160  E   0.62500  0.55810  0.69190
E161  E   0.62500  0.94190  0.80810
E162  E   0.63241  0.18310  0.19931
E163  E   0.63241  0.18310  0.30069
E164  E   0.63241  0.31690  0.19931
E165  E   0.63241  0.31690  0.30069
E166  E   0.63241  0.68310  0.69931
E167  E   0.63241  0.68310  0.80069
E168  E   0.63241  0.81690  0.69931
E169  E   0.63241  0.81690  0.80069
E170  E   0.68310  0.19931  0.13241
E171  E   0.68310  0.19931  0.36759
E172  E   0.68310  0.30069  0.13241
E173  E   0.68310  0.30069  0.36759
E174  E   0.68310  0.69931  0.63241
E175  E   0.68310  0.69931  0.86759
E176  E   0.68310  0.80069  0.63241
E177  E   0.68310  0.80069  0.86759
E178  E   0.69190  0.12500  0.05810
E179  E   0.69190  0.12500  0.05810
E180  E   0.69190  0.37500  0.44190
E181  E   0.69190  0.62500  0.55810
E182  E   0.69190  0.87500  0.94190
E183  E   0.69931  0.13241  0.18310
E184  E   0.69931  0.13241  0.31690
E185  E   0.69931  0.36759  0.18310
E186  E   0.69931  0.36759  0.31690
E187  E   0.69931  0.63241  0.68310
E188  E   0.69931  0.63241  0.81690
E189  E   0.69931  0.86759  0.68310
E190  E   0.69931  0.86759  0.81690
E191  E   0.80069  0.13241  0.18310
E192  E   0.80069  0.13241  0.31690
E193  E   0.80069  0.36759  0.18310
E194  E   0.80069  0.36759  0.31690
E195  E   0.80069  0.63241  0.68310
E196  E   0.80069  0.63241  0.81690
E197  E   0.80069  0.86759  0.68310
E198  E   0.80069  0.86759  0.81690
E199  E   0.80810  0.12500  0.44190
E200  E   0.80810  0.37500  0.05810
E201  E   0.80810  0.37500  0.05810
E202  E   0.80810  0.62500  0.94190
E203  E   0.80810  0.87500  0.55810
E204  E   0.81690  0.19931  0.13241
E205  E   0.81690  0.19931  0.36759
E206  E   0.81690  0.30069  0.13241
E207  E   0.81690  0.30069  0.36759
E208  E   0.81690  0.69931  0.63241
E209  E   0.81690  0.69931  0.86759
E210  E   0.81690  0.80069  0.63241
E211  E   0.81690  0.80069  0.86759
E212  E   0.86759  0.18310  0.19931
E213  E   0.86759  0.18310  0.30069
E214  E   0.86759  0.31690  0.19931
E215  E   0.86759  0.31690  0.30069
E216  E   0.86759  0.68310  0.69931
E217  E   0.86759  0.68310  0.80069
E218  E   0.86759  0.81690  0.69931
E219  E   0.86759  0.81690  0.80069
E220  E   0.87500  0.05810  0.30810
E221  E   0.87500  0.05810  0.30810
E222  E   0.87500  0.44190  0.19190
E223  E   0.87500  0.55810  0.80810
E224  E   0.87500  0.94190  0.69190
E225  E   0.88241  0.05069  0.43310
E226  E   0.88241  0.05069  0.56690
E227  E   0.88241  0.44931  0.06690
E228  E   0.88241  0.44931  0.93310
E229  E   0.88241  0.55069  0.06690
E230  E   0.88241  0.55069  0.93310
E231  E   0.88241  0.94931  0.43310
E232  E   0.88241  0.94931  0.56690
E233  E   0.93310  0.11759  0.44931
E234  E   0.93310  0.11759  0.55069
E235  E   0.93310  0.38241  0.05069
E236  E   0.93310  0.38241  0.94931
E237  E   0.93310  0.61759  0.05069
E238  E   0.93310  0.61759  0.94931
E239  E   0.93310  0.88241  0.44931
E240  E   0.93310  0.88241  0.55069
E241  E   0.94190  0.19190  0.37500
E242  E   0.94190  0.30810  0.12500
E243  E   0.94190  0.69190  0.87500
E244  E   0.94190  0.80810  0.62500
E245  E   0.94931  0.06690  0.38241
E246  E   0.94931  0.06690  0.61759
E247  E   0.94931  0.43310  0.11759
E248  E   0.94931  0.43310  0.88241
E249  E   0.94931  0.56690  0.11759
E250  E   0.94931  0.56690  0.88241
E251  E   0.94931  0.93310  0.38241
E252  E   0.94931  0.93310  0.61759
loop_
