data_fcq_I-43d  hall_number: 516, V_con: 5
_audit_creation_date              2025-03-06
_audit_creation_method            'MOFbuilder_1.0'
_symmetry_space_group_name_H-M    'P1'
_symmetry_Int_Tables_number       1
_symmetry_cell_setting            triclinic
loop_
_symmetry_equiv_pos_as_xyz
  x,y,z
_cell_length_a                    40.8729
_cell_length_b                    40.8729
_cell_length_c                    40.8729
_cell_angle_alpha                 90.0
_cell_angle_beta                  90.0
_cell_angle_gamma                 90.0
loop_
_atom_site_label
_atom_site_type_symbol
_atom_site_fract_x
_atom_site_fract_y
_atom_site_fract_z
V1    V   0.03850  0.40079  0.32157
V2    V   0.03850  0.59921  0.17843
V3    V   0.07157  0.15079  0.78850
V4    V   0.07157  0.84921  0.71150
V5    V   0.09921  0.32157  0.96150
V6    V   0.09921  0.67843  0.53850
V7    V   0.15079  0.21150  0.42843
V8    V   0.15079  0.78850  0.07157
V9    V   0.17843  0.03850  0.59921
V10   V   0.17843  0.96150  0.90079
V11   V   0.21150  0.42843  0.15079
V12   V   0.21150  0.57157  0.34921
V13   V   0.28850  0.42843  0.84921
V14   V   0.28850  0.57157  0.65079
V15   V   0.32157  0.03850  0.40079
V16   V   0.32157  0.96150  0.09921
V17   V   0.34921  0.21150  0.57157
V18   V   0.34921  0.78850  0.92843
V19   V   0.40079  0.32157  0.03850
V20   V   0.40079  0.67843  0.46150
V21   V   0.42843  0.15079  0.21150
V22   V   0.42843  0.84921  0.28850
V23   V   0.46150  0.40079  0.67843
V24   V   0.46150  0.59921  0.82157
V25   V   0.53850  0.09921  0.67843
V26   V   0.53850  0.90079  0.82157
V27   V   0.57157  0.34921  0.21150
V28   V   0.57157  0.65079  0.28850
V29   V   0.59921  0.17843  0.03850
V30   V   0.59921  0.82157  0.46150
V31   V   0.65079  0.28850  0.57157
V32   V   0.65079  0.71150  0.92843
V33   V   0.67843  0.46150  0.40079
V34   V   0.67843  0.53850  0.09921
V35   V   0.71150  0.07157  0.84921
V36   V   0.71150  0.92843  0.65079
V37   V   0.78850  0.07157  0.15079
V38   V   0.78850  0.92843  0.34921
V39   V   0.82157  0.46150  0.59921
V40   V   0.82157  0.53850  0.90079
V41   V   0.84921  0.28850  0.42843
V42   V   0.84921  0.71150  0.07157
V43   V   0.90079  0.17843  0.96150
V44   V   0.90079  0.82157  0.53850
V45   V   0.92843  0.34921  0.78850
V46   V   0.92843  0.65079  0.71150
V47   V   0.96150  0.09921  0.32157
V48   V   0.96150  0.90079  0.17843
E1    E   0.00000  0.25000  0.78850
E2    E   0.00000  0.25000  0.96150
E3    E   0.00000  0.75000  0.53850
E4    E   0.00000  0.75000  0.71150
E5    E   0.01382  0.33539  0.87500
E6    E   0.01382  0.66461  0.62500
E7    E   0.03850  0.50000  0.25000
E8    E   0.05615  0.15535  0.37500
E9    E   0.05615  0.84465  0.12500
E10   E   0.08539  0.23618  0.87500
E11   E   0.08539  0.76382  0.62500
E12   E   0.09465  0.30615  0.37500
E13   E   0.09465  0.69385  0.12500
E14   E   0.12500  0.05615  0.84465
E15   E   0.12500  0.09465  0.69385
E16   E   0.12500  0.41461  0.23618
E17   E   0.12500  0.48618  0.33539
E18   E   0.12500  0.51382  0.16461
E19   E   0.12500  0.58539  0.26382
E20   E   0.12500  0.90535  0.80615
E21   E   0.12500  0.94385  0.65535
E22   E   0.15535  0.37500  0.05615
E23   E   0.15535  0.62500  0.44385
E24   E   0.16461  0.12500  0.51382
E25   E   0.16461  0.87500  0.98618
E26   E   0.19385  0.37500  0.90535
E27   E   0.19385  0.62500  0.59465
E28   E   0.21150  0.50000  0.25000
E29   E   0.23618  0.12500  0.41461
E30   E   0.23618  0.87500  0.08539
E31   E   0.25000  0.03850  0.50000
E32   E   0.25000  0.21150  0.50000
E33   E   0.25000  0.78850  0.00000
E34   E   0.25000  0.96150  0.00000
E35   E   0.26382  0.12500  0.58539
E36   E   0.26382  0.87500  0.91461
E37   E   0.28850  0.50000  0.75000
E38   E   0.30615  0.37500  0.09465
E39   E   0.30615  0.62500  0.40535
E40   E   0.33539  0.12500  0.48618
E41   E   0.33539  0.87500  0.01382
E42   E   0.34465  0.37500  0.94385
E43   E   0.34465  0.62500  0.55615
E44   E   0.37500  0.05615  0.15535
E45   E   0.37500  0.09465  0.30615
E46   E   0.37500  0.41461  0.76382
E47   E   0.37500  0.48618  0.66461
E48   E   0.37500  0.51382  0.83539
E49   E   0.37500  0.58539  0.73618
E50   E   0.37500  0.90535  0.19385
E51   E   0.37500  0.94385  0.34465
E52   E   0.40535  0.30615  0.62500
E53   E   0.40535  0.69385  0.87500
E54   E   0.41461  0.23618  0.12500
E55   E   0.41461  0.76382  0.37500
E56   E   0.44385  0.15535  0.62500
E57   E   0.44385  0.84465  0.87500
E58   E   0.46150  0.50000  0.75000
E59   E   0.48618  0.33539  0.12500
E60   E   0.48618  0.66461  0.37500
E61   E   0.50000  0.25000  0.03850
E62   E   0.50000  0.25000  0.21150
E63   E   0.50000  0.75000  0.28850
E64   E   0.50000  0.75000  0.46150
E65   E   0.51382  0.16461  0.12500
E66   E   0.51382  0.83539  0.37500
E67   E   0.53850  0.00000  0.75000
E68   E   0.55615  0.34465  0.62500
E69   E   0.55615  0.65535  0.87500
E70   E   0.58539  0.26382  0.12500
E71   E   0.58539  0.73618  0.37500
E72   E   0.59465  0.19385  0.62500
E73   E   0.59465  0.80615  0.87500
E74   E   0.62500  0.01382  0.66461
E75   E   0.62500  0.08539  0.76382
E76   E   0.62500  0.40535  0.30615
E77   E   0.62500  0.44385  0.15535
E78   E   0.62500  0.55615  0.34465
E79   E   0.62500  0.59465  0.19385
E80   E   0.62500  0.91461  0.73618
E81   E   0.62500  0.98618  0.83539
E82   E   0.65535  0.12500  0.94385
E83   E   0.65535  0.87500  0.55615
E84   E   0.66461  0.37500  0.48618
E85   E   0.66461  0.62500  0.01382
E86   E   0.69385  0.12500  0.09465
E87   E   0.69385  0.87500  0.40535
E88   E   0.71150  0.00000  0.75000
E89   E   0.73618  0.37500  0.58539
E90   E   0.73618  0.62500  0.91461
E91   E   0.75000  0.28850  0.50000
E92   E   0.75000  0.46150  0.50000
E93   E   0.75000  0.53850  0.00000
E94   E   0.75000  0.71150  0.00000
E95   E   0.76382  0.37500  0.41461
E96   E   0.76382  0.62500  0.08539
E97   E   0.78850  0.00000  0.25000
E98   E   0.80615  0.12500  0.90535
E99   E   0.80615  0.87500  0.59465
E100  E   0.83539  0.37500  0.51382
E101  E   0.83539  0.62500  0.98618
E102  E   0.84465  0.12500  0.05615
E103  E   0.84465  0.87500  0.44385
E104  E   0.87500  0.01382  0.33539
E105  E   0.87500  0.08539  0.23618
E106  E   0.87500  0.40535  0.69385
E107  E   0.87500  0.44385  0.84465
E108  E   0.87500  0.55615  0.65535
E109  E   0.87500  0.59465  0.80615
E110  E   0.87500  0.91461  0.26382
E111  E   0.87500  0.98618  0.16461
E112  E   0.90535  0.19385  0.37500
E113  E   0.90535  0.80615  0.12500
E114  E   0.91461  0.26382  0.87500
E115  E   0.91461  0.73618  0.62500
E116  E   0.94385  0.34465  0.37500
E117  E   0.94385  0.65535  0.12500
E118  E   0.96150  0.00000  0.25000
E119  E   0.98618  0.16461  0.87500
E120  E   0.98618  0.83539  0.62500
loop_
