data_fcr_I-43d  hall_number: 516, V_con: 5
_audit_creation_date              2025-03-06
_audit_creation_method            'MOFbuilder_1.0'
_symmetry_space_group_name_H-M    'P1'
_symmetry_Int_Tables_number       1
_symmetry_cell_setting            triclinic
loop_
_symmetry_equiv_pos_as_xyz
  x,y,z
_cell_length_a                    38.6663
_cell_length_b                    38.6663
_cell_length_c                    38.6663
_cell_angle_alpha                 90.0
_cell_angle_beta                  90.0
_cell_angle_gamma                 90.0
loop_
_atom_site_label
_atom_site_type_symbol
_atom_site_fract_x
_atom_site_fract_y
_atom_site_fract_z
V1    V   0.01485  0.43091  0.85931
V2    V   0.01485  0.56909  0.64069
V3    V   0.06909  0.14069  0.51485
V4    V   0.06909  0.85931  0.98515
V5    V   0.10931  0.31909  0.23515
V6    V   0.10931  0.68091  0.26485
V7    V   0.14069  0.48515  0.43091
V8    V   0.14069  0.51485  0.06909
V9    V   0.18091  0.23515  0.89069
V10   V   0.18091  0.76485  0.60931
V11   V   0.23515  0.10931  0.31909
V12   V   0.23515  0.89069  0.18091
V13   V   0.26485  0.10931  0.68091
V14   V   0.26485  0.89069  0.81909
V15   V   0.31909  0.23515  0.10931
V16   V   0.31909  0.76485  0.39069
V17   V   0.35931  0.48515  0.56909
V18   V   0.35931  0.51485  0.93091
V19   V   0.39069  0.31909  0.76485
V20   V   0.39069  0.68091  0.73515
V21   V   0.43091  0.14069  0.48515
V22   V   0.43091  0.85931  0.01485
V23   V   0.48515  0.43091  0.14069
V24   V   0.48515  0.56909  0.35931
V25   V   0.51485  0.06909  0.14069
V26   V   0.51485  0.93091  0.35931
V27   V   0.56909  0.35931  0.48515
V28   V   0.56909  0.64069  0.01485
V29   V   0.60931  0.18091  0.76485
V30   V   0.60931  0.81909  0.73515
V31   V   0.64069  0.01485  0.56909
V32   V   0.64069  0.98515  0.93091
V33   V   0.68091  0.26485  0.10931
V34   V   0.68091  0.73515  0.39069
V35   V   0.73515  0.39069  0.68091
V36   V   0.73515  0.60931  0.81909
V37   V   0.76485  0.39069  0.31909
V38   V   0.76485  0.60931  0.18091
V39   V   0.81909  0.26485  0.89069
V40   V   0.81909  0.73515  0.60931
V41   V   0.85931  0.01485  0.43091
V42   V   0.85931  0.98515  0.06909
V43   V   0.89069  0.18091  0.23515
V44   V   0.89069  0.81909  0.26485
V45   V   0.93091  0.35931  0.51485
V46   V   0.93091  0.64069  0.98515
V47   V   0.98515  0.06909  0.85931
V48   V   0.98515  0.93091  0.64069
E1    E   0.00000  0.25000  0.23515
E2    E   0.00000  0.25000  0.51485
E3    E   0.00000  0.75000  0.26485
E4    E   0.00000  0.75000  0.98515
E5    E   0.01485  0.50000  0.75000
E6    E   0.02712  0.03580  0.57777
E7    E   0.02712  0.96420  0.92223
E8    E   0.03580  0.42223  0.47288
E9    E   0.03580  0.57777  0.02712
E10   E   0.07777  0.47288  0.96420
E11   E   0.07777  0.52712  0.53580
E12   E   0.08303  0.15212  0.87500
E13   E   0.08303  0.84788  0.62500
E14   E   0.09788  0.33303  0.87500
E15   E   0.09788  0.66697  0.62500
E16   E   0.12500  0.40212  0.33303
E17   E   0.12500  0.41697  0.15212
E18   E   0.12500  0.58303  0.34788
E19   E   0.12500  0.59788  0.16697
E20   E   0.15212  0.12500  0.41697
E21   E   0.15212  0.87500  0.08303
E22   E   0.16697  0.12500  0.59788
E23   E   0.16697  0.87500  0.90212
E24   E   0.17223  0.21420  0.27712
E25   E   0.17223  0.78580  0.22288
E26   E   0.21420  0.27712  0.17223
E27   E   0.21420  0.72288  0.32777
E28   E   0.22288  0.17223  0.78580
E29   E   0.22288  0.82777  0.71420
E30   E   0.23515  0.00000  0.25000
E31   E   0.25000  0.23515  0.00000
E32   E   0.25000  0.48515  0.50000
E33   E   0.25000  0.51485  0.00000
E34   E   0.25000  0.76485  0.50000
E35   E   0.26485  0.00000  0.75000
E36   E   0.27712  0.17223  0.21420
E37   E   0.27712  0.82777  0.28580
E38   E   0.28580  0.27712  0.82777
E39   E   0.28580  0.72288  0.67223
E40   E   0.32777  0.21420  0.72288
E41   E   0.32777  0.78580  0.77712
E42   E   0.33303  0.12500  0.40212
E43   E   0.33303  0.87500  0.09788
E44   E   0.34788  0.12500  0.58303
E45   E   0.34788  0.87500  0.91697
E46   E   0.37500  0.40212  0.66697
E47   E   0.37500  0.41697  0.84788
E48   E   0.37500  0.58303  0.65212
E49   E   0.37500  0.59788  0.83303
E50   E   0.40212  0.33303  0.12500
E51   E   0.40212  0.66697  0.37500
E52   E   0.41697  0.15212  0.12500
E53   E   0.41697  0.84788  0.37500
E54   E   0.42223  0.47288  0.03580
E55   E   0.42223  0.52712  0.46420
E56   E   0.46420  0.42223  0.52712
E57   E   0.46420  0.57777  0.97288
E58   E   0.47288  0.03580  0.42223
E59   E   0.47288  0.96420  0.07777
E60   E   0.48515  0.50000  0.25000
E61   E   0.50000  0.25000  0.48515
E62   E   0.50000  0.25000  0.76485
E63   E   0.50000  0.75000  0.01485
E64   E   0.50000  0.75000  0.73515
E65   E   0.51485  0.00000  0.25000
E66   E   0.52712  0.46420  0.42223
E67   E   0.52712  0.53580  0.07777
E68   E   0.53580  0.07777  0.52712
E69   E   0.53580  0.92223  0.97288
E70   E   0.57777  0.02712  0.03580
E71   E   0.57777  0.97288  0.46420
E72   E   0.58303  0.34788  0.12500
E73   E   0.58303  0.65212  0.37500
E74   E   0.59788  0.16697  0.12500
E75   E   0.59788  0.83303  0.37500
E76   E   0.62500  0.08303  0.84788
E77   E   0.62500  0.09788  0.66697
E78   E   0.62500  0.90212  0.83303
E79   E   0.62500  0.91697  0.65212
E80   E   0.65212  0.37500  0.58303
E81   E   0.65212  0.62500  0.91697
E82   E   0.66697  0.37500  0.40212
E83   E   0.66697  0.62500  0.09788
E84   E   0.67223  0.28580  0.72288
E85   E   0.67223  0.71420  0.77712
E86   E   0.71420  0.22288  0.82777
E87   E   0.71420  0.77712  0.67223
E88   E   0.72288  0.32777  0.21420
E89   E   0.72288  0.67223  0.28580
E90   E   0.73515  0.50000  0.75000
E91   E   0.75000  0.01485  0.50000
E92   E   0.75000  0.26485  0.00000
E93   E   0.75000  0.73515  0.50000
E94   E   0.75000  0.98515  0.00000
E95   E   0.76485  0.50000  0.25000
E96   E   0.77712  0.32777  0.78580
E97   E   0.77712  0.67223  0.71420
E98   E   0.78580  0.22288  0.17223
E99   E   0.78580  0.77712  0.32777
E100  E   0.82777  0.28580  0.27712
E101  E   0.82777  0.71420  0.22288
E102  E   0.83303  0.37500  0.59788
E103  E   0.83303  0.62500  0.90212
E104  E   0.84788  0.37500  0.41697
E105  E   0.84788  0.62500  0.08303
E106  E   0.87500  0.08303  0.15212
E107  E   0.87500  0.09788  0.33303
E108  E   0.87500  0.90212  0.16697
E109  E   0.87500  0.91697  0.34788
E110  E   0.90212  0.16697  0.87500
E111  E   0.90212  0.83303  0.62500
E112  E   0.91697  0.34788  0.87500
E113  E   0.91697  0.65212  0.62500
E114  E   0.92223  0.02712  0.96420
E115  E   0.92223  0.97288  0.53580
E116  E   0.96420  0.07777  0.47288
E117  E   0.96420  0.92223  0.02712
E118  E   0.97288  0.46420  0.57777
E119  E   0.97288  0.53580  0.92223
E120  E   0.98515  0.00000  0.75000
loop_
