data_fcz_Ia-3d  hall_number: 530, V_con: 5
_audit_creation_date              2025-03-06
_audit_creation_method            'MOFbuilder_1.0'
_symmetry_space_group_name_H-M    'P1'
_symmetry_Int_Tables_number       1
_symmetry_cell_setting            triclinic
loop_
_symmetry_equiv_pos_as_xyz
  x,y,z
_cell_length_a                    57.3656
_cell_length_b                    57.3656
_cell_length_c                    57.3656
_cell_angle_alpha                 90.0
_cell_angle_beta                  90.0
_cell_angle_gamma                 90.0
loop_
_atom_site_label
_atom_site_type_symbol
_atom_site_fract_x
_atom_site_fract_y
_atom_site_fract_z
V1    V   0.01294  0.12843  0.88611
V2    V   0.01294  0.37157  0.38611
V3    V   0.01294  0.62843  0.11389
V4    V   0.01294  0.87157  0.61389
V5    V   0.11389  0.01294  0.62843
V6    V   0.11389  0.48706  0.12843
V7    V   0.11389  0.51294  0.37157
V8    V   0.11389  0.98706  0.87157
V9    V   0.12157  0.23706  0.36389
V10   V   0.12157  0.26294  0.86389
V11   V   0.12157  0.73706  0.63611
V12   V   0.12157  0.76294  0.13611
V13   V   0.12843  0.11389  0.48706
V14   V   0.12843  0.38611  0.98706
V15   V   0.12843  0.61389  0.51294
V16   V   0.12843  0.88611  0.01294
V17   V   0.13611  0.12157  0.76294
V18   V   0.13611  0.37843  0.26294
V19   V   0.13611  0.62157  0.23706
V20   V   0.13611  0.87843  0.73706
V21   V   0.23706  0.13611  0.62157
V22   V   0.23706  0.36389  0.12157
V23   V   0.23706  0.63611  0.37843
V24   V   0.23706  0.86389  0.87843
V25   V   0.26294  0.13611  0.37843
V26   V   0.26294  0.36389  0.87843
V27   V   0.26294  0.63611  0.62157
V28   V   0.26294  0.86389  0.12157
V29   V   0.36389  0.12157  0.23706
V30   V   0.36389  0.37843  0.73706
V31   V   0.36389  0.62157  0.76294
V32   V   0.36389  0.87843  0.26294
V33   V   0.37157  0.11389  0.51294
V34   V   0.37157  0.38611  0.01294
V35   V   0.37157  0.61389  0.48706
V36   V   0.37157  0.88611  0.98706
V37   V   0.37843  0.23706  0.63611
V38   V   0.37843  0.26294  0.13611
V39   V   0.37843  0.73706  0.36389
V40   V   0.37843  0.76294  0.86389
V41   V   0.38611  0.01294  0.37157
V42   V   0.38611  0.48706  0.87157
V43   V   0.38611  0.51294  0.62843
V44   V   0.38611  0.98706  0.12843
V45   V   0.48706  0.12843  0.11389
V46   V   0.48706  0.37157  0.61389
V47   V   0.48706  0.62843  0.88611
V48   V   0.48706  0.87157  0.38611
V49   V   0.51294  0.12843  0.61389
V50   V   0.51294  0.37157  0.11389
V51   V   0.51294  0.62843  0.38611
V52   V   0.51294  0.87157  0.88611
V53   V   0.61389  0.01294  0.87157
V54   V   0.61389  0.48706  0.37157
V55   V   0.61389  0.51294  0.12843
V56   V   0.61389  0.98706  0.62843
V57   V   0.62157  0.23706  0.13611
V58   V   0.62157  0.26294  0.63611
V59   V   0.62157  0.73706  0.86389
V60   V   0.62157  0.76294  0.36389
V61   V   0.62843  0.11389  0.01294
V62   V   0.62843  0.38611  0.51294
V63   V   0.62843  0.61389  0.98706
V64   V   0.62843  0.88611  0.48706
V65   V   0.63611  0.12157  0.73706
V66   V   0.63611  0.37843  0.23706
V67   V   0.63611  0.62157  0.26294
V68   V   0.63611  0.87843  0.76294
V69   V   0.73706  0.13611  0.87843
V70   V   0.73706  0.36389  0.37843
V71   V   0.73706  0.63611  0.12157
V72   V   0.73706  0.86389  0.62157
V73   V   0.76294  0.13611  0.12157
V74   V   0.76294  0.36389  0.62157
V75   V   0.76294  0.63611  0.87843
V76   V   0.76294  0.86389  0.37843
V77   V   0.86389  0.12157  0.26294
V78   V   0.86389  0.37843  0.76294
V79   V   0.86389  0.62157  0.73706
V80   V   0.86389  0.87843  0.23706
V81   V   0.87157  0.11389  0.98706
V82   V   0.87157  0.38611  0.48706
V83   V   0.87157  0.61389  0.01294
V84   V   0.87157  0.88611  0.51294
V85   V   0.87843  0.23706  0.86389
V86   V   0.87843  0.26294  0.36389
V87   V   0.87843  0.73706  0.13611
V88   V   0.87843  0.76294  0.63611
V89   V   0.88611  0.01294  0.12843
V90   V   0.88611  0.48706  0.62843
V91   V   0.88611  0.51294  0.87157
V92   V   0.88611  0.98706  0.37157
V93   V   0.98706  0.12843  0.38611
V94   V   0.98706  0.37157  0.88611
V95   V   0.98706  0.62843  0.61389
V96   V   0.98706  0.87157  0.11389
E1    E   0.05431  0.18274  0.37500
E2    E   0.05431  0.31726  0.87500
E3    E   0.05431  0.68274  0.62500
E4    E   0.05431  0.81726  0.12500
E5    E   0.05774  0.12116  0.43658
E6    E   0.05774  0.37884  0.93658
E7    E   0.05774  0.62116  0.56342
E8    E   0.05774  0.87884  0.06342
E9    E   0.06342  0.05774  0.87884
E10   E   0.06342  0.44226  0.37884
E11   E   0.06342  0.55774  0.12116
E12   E   0.06342  0.94226  0.62116
E13   E   0.06726  0.19569  0.87500
E14   E   0.06726  0.30431  0.37500
E15   E   0.06726  0.69569  0.12500
E16   E   0.06726  0.80431  0.62500
E17   E   0.07453  0.12500  0.82453
E18   E   0.07453  0.37500  0.32453
E19   E   0.07453  0.62500  0.17547
E20   E   0.07453  0.87500  0.67547
E21   E   0.07453  0.12500  0.82453
E22   E   0.07453  0.37500  0.32453
E23   E   0.07453  0.62500  0.17547
E24   E   0.07453  0.87500  0.67547
E25   E   0.12116  0.06342  0.55774
E26   E   0.12116  0.43658  0.05774
E27   E   0.12116  0.56342  0.44226
E28   E   0.12116  0.93658  0.94226
E29   E   0.12500  0.05431  0.81726
E30   E   0.12500  0.06726  0.69569
E31   E   0.12500  0.17547  0.42547
E32   E   0.12500  0.17547  0.42547
E33   E   0.12500  0.32453  0.92547
E34   E   0.12500  0.43274  0.19569
E35   E   0.12500  0.44569  0.31726
E36   E   0.12500  0.55431  0.18274
E37   E   0.12500  0.56726  0.30431
E38   E   0.12500  0.67547  0.57453
E39   E   0.12500  0.82453  0.07453
E40   E   0.12500  0.82453  0.07453
E41   E   0.12500  0.93274  0.80431
E42   E   0.12500  0.94569  0.68274
E43   E   0.12884  0.19226  0.81342
E44   E   0.12884  0.30774  0.31342
E45   E   0.12884  0.69226  0.18658
E46   E   0.12884  0.80774  0.68658
E47   E   0.17547  0.07453  0.62500
E48   E   0.17547  0.42547  0.12500
E49   E   0.17547  0.57453  0.37500
E50   E   0.17547  0.92547  0.87500
E51   E   0.17547  0.07453  0.62500
E52   E   0.17547  0.42547  0.12500
E53   E   0.17547  0.57453  0.37500
E54   E   0.17547  0.92547  0.87500
E55   E   0.18274  0.12500  0.55431
E56   E   0.18274  0.37500  0.05431
E57   E   0.18274  0.62500  0.44569
E58   E   0.18274  0.87500  0.94569
E59   E   0.18658  0.12884  0.69226
E60   E   0.18658  0.37116  0.19226
E61   E   0.18658  0.62884  0.30774
E62   E   0.18658  0.87116  0.80774
E63   E   0.19226  0.18658  0.37116
E64   E   0.19226  0.31342  0.87116
E65   E   0.19226  0.68658  0.62884
E66   E   0.19226  0.81342  0.12884
E67   E   0.19569  0.12500  0.43274
E68   E   0.19569  0.37500  0.93274
E69   E   0.19569  0.62500  0.56726
E70   E   0.19569  0.87500  0.06726
E71   E   0.30431  0.12500  0.56726
E72   E   0.30431  0.37500  0.06726
E73   E   0.30431  0.62500  0.43274
E74   E   0.30431  0.87500  0.93274
E75   E   0.30774  0.18658  0.62884
E76   E   0.30774  0.31342  0.12884
E77   E   0.30774  0.68658  0.37116
E78   E   0.30774  0.81342  0.87116
E79   E   0.31342  0.12884  0.30774
E80   E   0.31342  0.37116  0.80774
E81   E   0.31342  0.62884  0.69226
E82   E   0.31342  0.87116  0.19226
E83   E   0.31726  0.12500  0.44569
E84   E   0.31726  0.37500  0.94569
E85   E   0.31726  0.62500  0.55431
E86   E   0.31726  0.87500  0.05431
E87   E   0.32453  0.07453  0.37500
E88   E   0.32453  0.07453  0.37500
E89   E   0.32453  0.42547  0.87500
E90   E   0.32453  0.57453  0.62500
E91   E   0.32453  0.92547  0.12500
E92   E   0.37116  0.19226  0.18658
E93   E   0.37116  0.30774  0.68658
E94   E   0.37116  0.69226  0.81342
E95   E   0.37116  0.80774  0.31342
E96   E   0.37500  0.05431  0.18274
E97   E   0.37500  0.06726  0.30431
E98   E   0.37500  0.17547  0.57453
E99   E   0.37500  0.17547  0.57453
E100  E   0.37500  0.32453  0.07453
E101  E   0.37500  0.32453  0.07453
E102  E   0.37500  0.43274  0.80431
E103  E   0.37500  0.44569  0.68274
E104  E   0.37500  0.55431  0.81726
E105  E   0.37500  0.56726  0.69569
E106  E   0.37500  0.67547  0.42547
E107  E   0.37500  0.82453  0.92547
E108  E   0.37500  0.93274  0.19569
E109  E   0.37500  0.94569  0.31726
E110  E   0.37884  0.06342  0.44226
E111  E   0.37884  0.43658  0.94226
E112  E   0.37884  0.56342  0.55774
E113  E   0.37884  0.93658  0.05774
E114  E   0.42547  0.12500  0.17547
E115  E   0.42547  0.12500  0.17547
E116  E   0.42547  0.37500  0.67547
E117  E   0.42547  0.62500  0.82453
E118  E   0.42547  0.87500  0.32453
E119  E   0.43274  0.19569  0.12500
E120  E   0.43274  0.30431  0.62500
E121  E   0.43274  0.69569  0.87500
E122  E   0.43274  0.80431  0.37500
E123  E   0.43658  0.05774  0.12116
E124  E   0.43658  0.44226  0.62116
E125  E   0.43658  0.55774  0.87884
E126  E   0.43658  0.94226  0.37884
E127  E   0.44226  0.12116  0.56342
E128  E   0.44226  0.37884  0.06342
E129  E   0.44226  0.62116  0.43658
E130  E   0.44226  0.87884  0.93658
E131  E   0.44569  0.18274  0.62500
E132  E   0.44569  0.31726  0.12500
E133  E   0.44569  0.68274  0.37500
E134  E   0.44569  0.81726  0.87500
E135  E   0.55431  0.18274  0.12500
E136  E   0.55431  0.31726  0.62500
E137  E   0.55431  0.68274  0.87500
E138  E   0.55431  0.81726  0.37500
E139  E   0.55774  0.12116  0.06342
E140  E   0.55774  0.37884  0.56342
E141  E   0.55774  0.62116  0.93658
E142  E   0.55774  0.87884  0.43658
E143  E   0.56342  0.05774  0.62116
E144  E   0.56342  0.44226  0.12116
E145  E   0.56342  0.55774  0.37884
E146  E   0.56342  0.94226  0.87884
E147  E   0.56726  0.19569  0.62500
E148  E   0.56726  0.30431  0.12500
E149  E   0.56726  0.69569  0.37500
E150  E   0.56726  0.80431  0.87500
E151  E   0.57453  0.12500  0.67547
E152  E   0.57453  0.37500  0.17547
E153  E   0.57453  0.37500  0.17547
E154  E   0.57453  0.62500  0.32453
E155  E   0.57453  0.87500  0.82453
E156  E   0.62116  0.06342  0.94226
E157  E   0.62116  0.43658  0.44226
E158  E   0.62116  0.56342  0.05774
E159  E   0.62116  0.93658  0.55774
E160  E   0.62500  0.05431  0.68274
E161  E   0.62500  0.06726  0.80431
E162  E   0.62500  0.17547  0.07453
E163  E   0.62500  0.17547  0.07453
E164  E   0.62500  0.32453  0.57453
E165  E   0.62500  0.43274  0.30431
E166  E   0.62500  0.44569  0.18274
E167  E   0.62500  0.55431  0.31726
E168  E   0.62500  0.56726  0.19569
E169  E   0.62500  0.67547  0.92547
E170  E   0.62500  0.82453  0.42547
E171  E   0.62500  0.93274  0.69569
E172  E   0.62500  0.94569  0.81726
E173  E   0.62884  0.19226  0.68658
E174  E   0.62884  0.30774  0.18658
E175  E   0.62884  0.69226  0.31342
E176  E   0.62884  0.80774  0.81342
E177  E   0.67547  0.07453  0.87500
E178  E   0.67547  0.07453  0.87500
E179  E   0.67547  0.42547  0.37500
E180  E   0.67547  0.57453  0.12500
E181  E   0.67547  0.92547  0.62500
E182  E   0.68274  0.12500  0.94569
E183  E   0.68274  0.37500  0.44569
E184  E   0.68274  0.62500  0.05431
E185  E   0.68274  0.87500  0.55431
E186  E   0.68658  0.12884  0.80774
E187  E   0.68658  0.37116  0.30774
E188  E   0.68658  0.62884  0.19226
E189  E   0.68658  0.87116  0.69226
E190  E   0.69226  0.18658  0.12884
E191  E   0.69226  0.31342  0.62884
E192  E   0.69226  0.68658  0.87116
E193  E   0.69226  0.81342  0.37116
E194  E   0.69569  0.12500  0.06726
E195  E   0.69569  0.37500  0.56726
E196  E   0.69569  0.62500  0.93274
E197  E   0.69569  0.87500  0.43274
E198  E   0.80431  0.12500  0.93274
E199  E   0.80431  0.37500  0.43274
E200  E   0.80431  0.62500  0.06726
E201  E   0.80431  0.87500  0.56726
E202  E   0.80774  0.18658  0.87116
E203  E   0.80774  0.31342  0.37116
E204  E   0.80774  0.68658  0.12884
E205  E   0.80774  0.81342  0.62884
E206  E   0.81342  0.12884  0.19226
E207  E   0.81342  0.37116  0.69226
E208  E   0.81342  0.62884  0.80774
E209  E   0.81342  0.87116  0.30774
E210  E   0.81726  0.12500  0.05431
E211  E   0.81726  0.37500  0.55431
E212  E   0.81726  0.62500  0.94569
E213  E   0.81726  0.87500  0.44569
E214  E   0.82453  0.07453  0.12500
E215  E   0.82453  0.07453  0.12500
E216  E   0.82453  0.42547  0.62500
E217  E   0.82453  0.57453  0.87500
E218  E   0.82453  0.92547  0.37500
E219  E   0.87116  0.19226  0.31342
E220  E   0.87116  0.30774  0.81342
E221  E   0.87116  0.69226  0.68658
E222  E   0.87116  0.80774  0.18658
E223  E   0.87500  0.05431  0.31726
E224  E   0.87500  0.06726  0.19569
E225  E   0.87500  0.17547  0.92547
E226  E   0.87500  0.17547  0.92547
E227  E   0.87500  0.32453  0.42547
E228  E   0.87500  0.43274  0.69569
E229  E   0.87500  0.44569  0.81726
E230  E   0.87500  0.55431  0.68274
E231  E   0.87500  0.56726  0.80431
E232  E   0.87500  0.67547  0.07453
E233  E   0.87500  0.67547  0.07453
E234  E   0.87500  0.82453  0.57453
E235  E   0.87500  0.93274  0.30431
E236  E   0.87500  0.94569  0.18274
E237  E   0.87884  0.06342  0.05774
E238  E   0.87884  0.43658  0.55774
E239  E   0.87884  0.56342  0.94226
E240  E   0.87884  0.93658  0.44226
E241  E   0.92547  0.12500  0.32453
E242  E   0.92547  0.37500  0.82453
E243  E   0.92547  0.62500  0.67547
E244  E   0.92547  0.87500  0.17547
E245  E   0.92547  0.87500  0.17547
E246  E   0.93274  0.19569  0.37500
E247  E   0.93274  0.30431  0.87500
E248  E   0.93274  0.69569  0.62500
E249  E   0.93274  0.80431  0.12500
E250  E   0.93658  0.05774  0.37884
E251  E   0.93658  0.44226  0.87884
E252  E   0.93658  0.55774  0.62116
E253  E   0.93658  0.94226  0.12116
E254  E   0.94226  0.12116  0.93658
E255  E   0.94226  0.37884  0.43658
E256  E   0.94226  0.62116  0.06342
E257  E   0.94226  0.87884  0.56342
E258  E   0.94569  0.18274  0.87500
E259  E   0.94569  0.31726  0.37500
E260  E   0.94569  0.68274  0.12500
E261  E   0.94569  0.81726  0.62500
loop_
