data_fda_Ia-3d  hall_number: 530, V_con: 5
_audit_creation_date              2025-03-06
_audit_creation_method            'MOFbuilder_1.0'
_symmetry_space_group_name_H-M    'P1'
_symmetry_Int_Tables_number       1
_symmetry_cell_setting            triclinic
loop_
_symmetry_equiv_pos_as_xyz
  x,y,z
_cell_length_a                    48.67
_cell_length_b                    48.67
_cell_length_c                    48.67
_cell_angle_alpha                 90.0
_cell_angle_beta                  90.0
_cell_angle_gamma                 90.0
loop_
_atom_site_label
_atom_site_type_symbol
_atom_site_fract_x
_atom_site_fract_y
_atom_site_fract_z
V1    V   0.05236  0.07264  0.67736
V2    V   0.05236  0.42736  0.17736
V3    V   0.05236  0.57264  0.32264
V4    V   0.05236  0.92736  0.82264
V5    V   0.07264  0.17736  0.30236
V6    V   0.07264  0.32264  0.80236
V7    V   0.07264  0.67736  0.69764
V8    V   0.07264  0.82264  0.19764
V9    V   0.07264  0.17736  0.94764
V10   V   0.07264  0.32264  0.44764
V11   V   0.07264  0.67736  0.05236
V12   V   0.07264  0.82264  0.55236
V13   V   0.17736  0.19764  0.57264
V14   V   0.17736  0.30236  0.07264
V15   V   0.17736  0.69764  0.42736
V16   V   0.17736  0.80236  0.92736
V17   V   0.17736  0.05236  0.42736
V18   V   0.17736  0.44764  0.92736
V19   V   0.17736  0.55236  0.57264
V20   V   0.17736  0.94764  0.07264
V21   V   0.19764  0.07264  0.82264
V22   V   0.19764  0.42736  0.32264
V23   V   0.19764  0.57264  0.17736
V24   V   0.19764  0.92736  0.67736
V25   V   0.30236  0.07264  0.17736
V26   V   0.30236  0.42736  0.67736
V27   V   0.30236  0.57264  0.82264
V28   V   0.30236  0.92736  0.32264
V29   V   0.32264  0.05236  0.57264
V30   V   0.32264  0.44764  0.07264
V31   V   0.32264  0.55236  0.42736
V32   V   0.32264  0.94764  0.92736
V33   V   0.32264  0.19764  0.42736
V34   V   0.32264  0.30236  0.92736
V35   V   0.32264  0.69764  0.57264
V36   V   0.32264  0.80236  0.07264
V37   V   0.42736  0.17736  0.05236
V38   V   0.42736  0.32264  0.55236
V39   V   0.42736  0.67736  0.94764
V40   V   0.42736  0.82264  0.44764
V41   V   0.42736  0.17736  0.69764
V42   V   0.42736  0.32264  0.19764
V43   V   0.42736  0.67736  0.30236
V44   V   0.42736  0.82264  0.80236
V45   V   0.44764  0.07264  0.32264
V46   V   0.44764  0.42736  0.82264
V47   V   0.44764  0.57264  0.67736
V48   V   0.44764  0.92736  0.17736
V49   V   0.55236  0.07264  0.82264
V50   V   0.55236  0.42736  0.32264
V51   V   0.55236  0.57264  0.17736
V52   V   0.55236  0.92736  0.67736
V53   V   0.57264  0.17736  0.19764
V54   V   0.57264  0.17736  0.55236
V55   V   0.57264  0.32264  0.05236
V56   V   0.57264  0.32264  0.69764
V57   V   0.57264  0.67736  0.44764
V58   V   0.57264  0.67736  0.80236
V59   V   0.57264  0.82264  0.30236
V60   V   0.57264  0.82264  0.94764
V61   V   0.67736  0.05236  0.07264
V62   V   0.67736  0.19764  0.92736
V63   V   0.67736  0.30236  0.42736
V64   V   0.67736  0.44764  0.57264
V65   V   0.67736  0.55236  0.92736
V66   V   0.67736  0.69764  0.07264
V67   V   0.67736  0.80236  0.57264
V68   V   0.67736  0.94764  0.42736
V69   V   0.69764  0.07264  0.67736
V70   V   0.69764  0.42736  0.17736
V71   V   0.69764  0.57264  0.32264
V72   V   0.69764  0.92736  0.82264
V73   V   0.80236  0.07264  0.32264
V74   V   0.80236  0.42736  0.82264
V75   V   0.80236  0.57264  0.67736
V76   V   0.80236  0.92736  0.17736
V77   V   0.82264  0.05236  0.92736
V78   V   0.82264  0.19764  0.07264
V79   V   0.82264  0.30236  0.57264
V80   V   0.82264  0.44764  0.42736
V81   V   0.82264  0.55236  0.07264
V82   V   0.82264  0.69764  0.92736
V83   V   0.82264  0.80236  0.42736
V84   V   0.82264  0.94764  0.57264
V85   V   0.92736  0.17736  0.80236
V86   V   0.92736  0.17736  0.44764
V87   V   0.92736  0.32264  0.94764
V88   V   0.92736  0.32264  0.30236
V89   V   0.92736  0.67736  0.19764
V90   V   0.92736  0.67736  0.55236
V91   V   0.92736  0.82264  0.05236
V92   V   0.92736  0.82264  0.69764
V93   V   0.94764  0.07264  0.17736
V94   V   0.94764  0.42736  0.67736
V95   V   0.94764  0.57264  0.82264
V96   V   0.94764  0.92736  0.32264
E1    E   0.00000  0.17736  0.37500
E2    E   0.00000  0.17736  0.87500
E3    E   0.00000  0.25000  0.30236
E4    E   0.00000  0.25000  0.44764
E5    E   0.00000  0.25000  0.80236
E6    E   0.00000  0.25000  0.94764
E7    E   0.00000  0.32264  0.37500
E8    E   0.00000  0.32264  0.87500
E9    E   0.00000  0.67736  0.12500
E10   E   0.00000  0.67736  0.62500
E11   E   0.00000  0.75000  0.05236
E12   E   0.00000  0.75000  0.19764
E13   E   0.00000  0.75000  0.55236
E14   E   0.00000  0.75000  0.69764
E15   E   0.00000  0.82264  0.12500
E16   E   0.00000  0.82264  0.62500
E17   E   0.01014  0.12500  0.23986
E18   E   0.01014  0.37500  0.73986
E19   E   0.01014  0.62500  0.76014
E20   E   0.01014  0.87500  0.26014
E21   E   0.01014  0.12500  0.23986
E22   E   0.01014  0.37500  0.73986
E23   E   0.01014  0.62500  0.76014
E24   E   0.01014  0.87500  0.26014
E25   E   0.05236  0.00000  0.75000
E26   E   0.05236  0.50000  0.25000
E27   E   0.07264  0.25000  0.37500
E28   E   0.07264  0.25000  0.87500
E29   E   0.07264  0.75000  0.12500
E30   E   0.07264  0.75000  0.62500
E31   E   0.11486  0.13514  0.62500
E32   E   0.11486  0.36486  0.12500
E33   E   0.11486  0.63514  0.37500
E34   E   0.11486  0.86486  0.87500
E35   E   0.11486  0.13514  0.62500
E36   E   0.11486  0.36486  0.12500
E37   E   0.11486  0.63514  0.37500
E38   E   0.11486  0.86486  0.87500
E39   E   0.12500  0.00000  0.67736
E40   E   0.12500  0.00000  0.82264
E41   E   0.12500  0.07264  0.75000
E42   E   0.12500  0.11486  0.36486
E43   E   0.12500  0.11486  0.36486
E44   E   0.12500  0.23986  0.01014
E45   E   0.12500  0.23986  0.01014
E46   E   0.12500  0.26014  0.51014
E47   E   0.12500  0.26014  0.51014
E48   E   0.12500  0.38514  0.86486
E49   E   0.12500  0.42736  0.25000
E50   E   0.12500  0.50000  0.17736
E51   E   0.12500  0.50000  0.32264
E52   E   0.12500  0.57264  0.25000
E53   E   0.12500  0.61486  0.63514
E54   E   0.12500  0.73986  0.98986
E55   E   0.12500  0.76014  0.48986
E56   E   0.12500  0.76014  0.48986
E57   E   0.12500  0.88514  0.13514
E58   E   0.12500  0.92736  0.75000
E59   E   0.13514  0.12500  0.88514
E60   E   0.13514  0.37500  0.38514
E61   E   0.13514  0.62500  0.11486
E62   E   0.13514  0.62500  0.11486
E63   E   0.13514  0.87500  0.61486
E64   E   0.17736  0.12500  0.50000
E65   E   0.17736  0.37500  0.00000
E66   E   0.17736  0.62500  0.50000
E67   E   0.17736  0.87500  0.00000
E68   E   0.19764  0.00000  0.75000
E69   E   0.19764  0.50000  0.25000
E70   E   0.23986  0.01014  0.12500
E71   E   0.23986  0.01014  0.12500
E72   E   0.23986  0.48986  0.62500
E73   E   0.23986  0.48986  0.62500
E74   E   0.23986  0.51014  0.87500
E75   E   0.23986  0.98986  0.37500
E76   E   0.25000  0.05236  0.50000
E77   E   0.25000  0.12500  0.42736
E78   E   0.25000  0.12500  0.57264
E79   E   0.25000  0.19764  0.50000
E80   E   0.25000  0.30236  0.00000
E81   E   0.25000  0.37500  0.07264
E82   E   0.25000  0.37500  0.92736
E83   E   0.25000  0.44764  0.00000
E84   E   0.25000  0.55236  0.50000
E85   E   0.25000  0.62500  0.42736
E86   E   0.25000  0.62500  0.57264
E87   E   0.25000  0.69764  0.50000
E88   E   0.25000  0.80236  0.00000
E89   E   0.25000  0.87500  0.07264
E90   E   0.25000  0.87500  0.92736
E91   E   0.25000  0.94764  0.00000
E92   E   0.26014  0.01014  0.87500
E93   E   0.26014  0.48986  0.37500
E94   E   0.26014  0.51014  0.12500
E95   E   0.26014  0.98986  0.62500
E96   E   0.26014  0.01014  0.87500
E97   E   0.26014  0.48986  0.37500
E98   E   0.26014  0.51014  0.12500
E99   E   0.26014  0.98986  0.62500
E100  E   0.30236  0.00000  0.25000
E101  E   0.30236  0.50000  0.75000
E102  E   0.32264  0.12500  0.50000
E103  E   0.32264  0.37500  0.00000
E104  E   0.32264  0.62500  0.50000
E105  E   0.32264  0.87500  0.00000
E106  E   0.36486  0.12500  0.11486
E107  E   0.36486  0.12500  0.11486
E108  E   0.36486  0.37500  0.61486
E109  E   0.36486  0.62500  0.88514
E110  E   0.36486  0.87500  0.38514
E111  E   0.37500  0.00000  0.17736
E112  E   0.37500  0.00000  0.32264
E113  E   0.37500  0.07264  0.25000
E114  E   0.37500  0.11486  0.63514
E115  E   0.37500  0.11486  0.63514
E116  E   0.37500  0.23986  0.98986
E117  E   0.37500  0.26014  0.48986
E118  E   0.37500  0.26014  0.48986
E119  E   0.37500  0.38514  0.13514
E120  E   0.37500  0.42736  0.75000
E121  E   0.37500  0.50000  0.67736
E122  E   0.37500  0.50000  0.82264
E123  E   0.37500  0.57264  0.75000
E124  E   0.37500  0.61486  0.36486
E125  E   0.37500  0.73986  0.01014
E126  E   0.37500  0.73986  0.01014
E127  E   0.37500  0.76014  0.51014
E128  E   0.37500  0.88514  0.86486
E129  E   0.37500  0.92736  0.25000
E130  E   0.38514  0.13514  0.37500
E131  E   0.38514  0.36486  0.87500
E132  E   0.38514  0.63514  0.62500
E133  E   0.38514  0.86486  0.12500
E134  E   0.42736  0.25000  0.12500
E135  E   0.42736  0.25000  0.62500
E136  E   0.42736  0.75000  0.37500
E137  E   0.42736  0.75000  0.87500
E138  E   0.44764  0.00000  0.25000
E139  E   0.44764  0.50000  0.75000
E140  E   0.48986  0.12500  0.76014
E141  E   0.48986  0.37500  0.26014
E142  E   0.48986  0.62500  0.23986
E143  E   0.48986  0.87500  0.73986
E144  E   0.48986  0.12500  0.76014
E145  E   0.48986  0.37500  0.26014
E146  E   0.48986  0.62500  0.23986
E147  E   0.48986  0.87500  0.73986
E148  E   0.50000  0.17736  0.12500
E149  E   0.50000  0.17736  0.62500
E150  E   0.50000  0.25000  0.05236
E151  E   0.50000  0.25000  0.19764
E152  E   0.50000  0.25000  0.55236
E153  E   0.50000  0.25000  0.69764
E154  E   0.50000  0.32264  0.12500
E155  E   0.50000  0.32264  0.62500
E156  E   0.50000  0.67736  0.37500
E157  E   0.50000  0.67736  0.87500
E158  E   0.50000  0.75000  0.30236
E159  E   0.50000  0.75000  0.44764
E160  E   0.50000  0.75000  0.80236
E161  E   0.50000  0.75000  0.94764
E162  E   0.50000  0.82264  0.37500
E163  E   0.50000  0.82264  0.87500
E164  E   0.51014  0.12500  0.26014
E165  E   0.51014  0.12500  0.26014
E166  E   0.51014  0.37500  0.76014
E167  E   0.51014  0.62500  0.73986
E168  E   0.51014  0.87500  0.23986
E169  E   0.55236  0.00000  0.75000
E170  E   0.55236  0.50000  0.25000
E171  E   0.57264  0.25000  0.12500
E172  E   0.57264  0.25000  0.62500
E173  E   0.57264  0.75000  0.37500
E174  E   0.57264  0.75000  0.87500
E175  E   0.61486  0.13514  0.87500
E176  E   0.61486  0.36486  0.37500
E177  E   0.61486  0.63514  0.12500
E178  E   0.61486  0.86486  0.62500
E179  E   0.62500  0.00000  0.67736
E180  E   0.62500  0.00000  0.82264
E181  E   0.62500  0.07264  0.75000
E182  E   0.62500  0.11486  0.13514
E183  E   0.62500  0.11486  0.13514
E184  E   0.62500  0.23986  0.48986
E185  E   0.62500  0.23986  0.48986
E186  E   0.62500  0.26014  0.98986
E187  E   0.62500  0.26014  0.98986
E188  E   0.62500  0.38514  0.63514
E189  E   0.62500  0.42736  0.25000
E190  E   0.62500  0.50000  0.17736
E191  E   0.62500  0.50000  0.32264
E192  E   0.62500  0.57264  0.25000
E193  E   0.62500  0.61486  0.86486
E194  E   0.62500  0.73986  0.51014
E195  E   0.62500  0.76014  0.01014
E196  E   0.62500  0.76014  0.01014
E197  E   0.62500  0.88514  0.36486
E198  E   0.62500  0.92736  0.75000
E199  E   0.63514  0.12500  0.61486
E200  E   0.63514  0.37500  0.11486
E201  E   0.63514  0.37500  0.11486
E202  E   0.63514  0.62500  0.38514
E203  E   0.63514  0.87500  0.88514
E204  E   0.67736  0.12500  0.00000
E205  E   0.67736  0.37500  0.50000
E206  E   0.67736  0.62500  0.00000
E207  E   0.67736  0.87500  0.50000
E208  E   0.69764  0.00000  0.75000
E209  E   0.69764  0.50000  0.25000
E210  E   0.73986  0.01014  0.37500
E211  E   0.73986  0.01014  0.37500
E212  E   0.73986  0.48986  0.87500
E213  E   0.73986  0.48986  0.87500
E214  E   0.73986  0.51014  0.62500
E215  E   0.73986  0.98986  0.12500
E216  E   0.75000  0.05236  0.00000
E217  E   0.75000  0.12500  0.07264
E218  E   0.75000  0.12500  0.92736
E219  E   0.75000  0.19764  0.00000
E220  E   0.75000  0.30236  0.50000
E221  E   0.75000  0.37500  0.42736
E222  E   0.75000  0.37500  0.57264
E223  E   0.75000  0.44764  0.50000
E224  E   0.75000  0.55236  0.00000
E225  E   0.75000  0.62500  0.07264
E226  E   0.75000  0.62500  0.92736
E227  E   0.75000  0.69764  0.00000
E228  E   0.75000  0.80236  0.50000
E229  E   0.75000  0.87500  0.42736
E230  E   0.75000  0.87500  0.57264
E231  E   0.75000  0.94764  0.50000
E232  E   0.76014  0.01014  0.62500
E233  E   0.76014  0.01014  0.62500
E234  E   0.76014  0.48986  0.12500
E235  E   0.76014  0.48986  0.12500
E236  E   0.76014  0.51014  0.37500
E237  E   0.76014  0.98986  0.87500
E238  E   0.80236  0.00000  0.25000
E239  E   0.80236  0.50000  0.75000
E240  E   0.82264  0.12500  0.00000
E241  E   0.82264  0.37500  0.50000
E242  E   0.82264  0.62500  0.00000
E243  E   0.82264  0.87500  0.50000
E244  E   0.86486  0.12500  0.38514
E245  E   0.86486  0.37500  0.88514
E246  E   0.86486  0.62500  0.61486
E247  E   0.86486  0.87500  0.11486
E248  E   0.86486  0.87500  0.11486
E249  E   0.87500  0.00000  0.17736
E250  E   0.87500  0.00000  0.32264
E251  E   0.87500  0.07264  0.25000
E252  E   0.87500  0.11486  0.86486
E253  E   0.87500  0.11486  0.86486
E254  E   0.87500  0.23986  0.51014
E255  E   0.87500  0.26014  0.01014
E256  E   0.87500  0.26014  0.01014
E257  E   0.87500  0.38514  0.36486
E258  E   0.87500  0.42736  0.75000
E259  E   0.87500  0.50000  0.67736
E260  E   0.87500  0.50000  0.82264
E261  E   0.87500  0.57264  0.75000
E262  E   0.87500  0.61486  0.13514
E263  E   0.87500  0.73986  0.48986
E264  E   0.87500  0.73986  0.48986
E265  E   0.87500  0.76014  0.98986
E266  E   0.87500  0.88514  0.63514
E267  E   0.87500  0.92736  0.25000
E268  E   0.88514  0.13514  0.12500
E269  E   0.88514  0.36486  0.62500
E270  E   0.88514  0.63514  0.87500
E271  E   0.88514  0.86486  0.37500
E272  E   0.92736  0.25000  0.37500
E273  E   0.92736  0.25000  0.87500
E274  E   0.92736  0.75000  0.12500
E275  E   0.92736  0.75000  0.62500
E276  E   0.94764  0.00000  0.25000
E277  E   0.94764  0.50000  0.75000
E278  E   0.98986  0.12500  0.73986
E279  E   0.98986  0.37500  0.23986
E280  E   0.98986  0.62500  0.26014
E281  E   0.98986  0.62500  0.26014
E282  E   0.98986  0.87500  0.76014
loop_
