data_fdc_Ia-3d  hall_number: 530, V_con: 5
_audit_creation_date              2025-03-06
_audit_creation_method            'MOFbuilder_1.0'
_symmetry_space_group_name_H-M    'P1'
_symmetry_Int_Tables_number       1
_symmetry_cell_setting            triclinic
loop_
_symmetry_equiv_pos_as_xyz
  x,y,z
_cell_length_a                    47.1802
_cell_length_b                    47.1802
_cell_length_c                    47.1802
_cell_angle_alpha                 90.0
_cell_angle_beta                  90.0
_cell_angle_gamma                 90.0
loop_
_atom_site_label
_atom_site_type_symbol
_atom_site_fract_x
_atom_site_fract_y
_atom_site_fract_z
V1    V   0.02204  0.05505  0.34055
V2    V   0.02204  0.44495  0.84055
V3    V   0.02204  0.55505  0.65945
V4    V   0.02204  0.94495  0.15945
V5    V   0.05505  0.15945  0.52204
V6    V   0.05505  0.34055  0.02204
V7    V   0.05505  0.65945  0.47796
V8    V   0.05505  0.84055  0.97796
V9    V   0.09055  0.19495  0.72796
V10   V   0.09055  0.30505  0.22796
V11   V   0.09055  0.69495  0.27204
V12   V   0.09055  0.80505  0.77204
V13   V   0.15945  0.02204  0.94495
V14   V   0.15945  0.47796  0.44495
V15   V   0.15945  0.52204  0.05505
V16   V   0.15945  0.97796  0.55505
V17   V   0.19495  0.22796  0.90945
V18   V   0.19495  0.27204  0.40945
V19   V   0.19495  0.72796  0.09055
V20   V   0.19495  0.77204  0.59055
V21   V   0.22796  0.09055  0.30505
V22   V   0.22796  0.40945  0.80505
V23   V   0.22796  0.59055  0.69495
V24   V   0.22796  0.90945  0.19495
V25   V   0.27204  0.09055  0.69495
V26   V   0.27204  0.40945  0.19495
V27   V   0.27204  0.59055  0.30505
V28   V   0.27204  0.90945  0.80505
V29   V   0.30505  0.22796  0.09055
V30   V   0.30505  0.27204  0.59055
V31   V   0.30505  0.72796  0.90945
V32   V   0.30505  0.77204  0.40945
V33   V   0.34055  0.02204  0.05505
V34   V   0.34055  0.47796  0.55505
V35   V   0.34055  0.52204  0.94495
V36   V   0.34055  0.97796  0.44495
V37   V   0.40945  0.19495  0.27204
V38   V   0.40945  0.30505  0.77204
V39   V   0.40945  0.69495  0.72796
V40   V   0.40945  0.80505  0.22796
V41   V   0.44495  0.15945  0.47796
V42   V   0.44495  0.34055  0.97796
V43   V   0.44495  0.65945  0.52204
V44   V   0.44495  0.84055  0.02204
V45   V   0.47796  0.05505  0.65945
V46   V   0.47796  0.44495  0.15945
V47   V   0.47796  0.55505  0.34055
V48   V   0.47796  0.94495  0.84055
V49   V   0.52204  0.05505  0.15945
V50   V   0.52204  0.44495  0.65945
V51   V   0.52204  0.55505  0.84055
V52   V   0.52204  0.94495  0.34055
V53   V   0.55505  0.15945  0.97796
V54   V   0.55505  0.34055  0.47796
V55   V   0.55505  0.65945  0.02204
V56   V   0.55505  0.84055  0.52204
V57   V   0.59055  0.19495  0.77204
V58   V   0.59055  0.30505  0.27204
V59   V   0.59055  0.69495  0.22796
V60   V   0.59055  0.80505  0.72796
V61   V   0.65945  0.02204  0.55505
V62   V   0.65945  0.47796  0.05505
V63   V   0.65945  0.52204  0.44495
V64   V   0.65945  0.97796  0.94495
V65   V   0.69495  0.22796  0.59055
V66   V   0.69495  0.27204  0.09055
V67   V   0.69495  0.72796  0.40945
V68   V   0.69495  0.77204  0.90945
V69   V   0.72796  0.09055  0.19495
V70   V   0.72796  0.40945  0.69495
V71   V   0.72796  0.59055  0.80505
V72   V   0.72796  0.90945  0.30505
V73   V   0.77204  0.09055  0.80505
V74   V   0.77204  0.40945  0.30505
V75   V   0.77204  0.59055  0.19495
V76   V   0.77204  0.90945  0.69495
V77   V   0.80505  0.22796  0.40945
V78   V   0.80505  0.27204  0.90945
V79   V   0.80505  0.72796  0.59055
V80   V   0.80505  0.77204  0.09055
V81   V   0.84055  0.02204  0.44495
V82   V   0.84055  0.47796  0.94495
V83   V   0.84055  0.52204  0.55505
V84   V   0.84055  0.97796  0.05505
V85   V   0.90945  0.19495  0.22796
V86   V   0.90945  0.30505  0.72796
V87   V   0.90945  0.69495  0.77204
V88   V   0.90945  0.80505  0.27204
V89   V   0.94495  0.15945  0.02204
V90   V   0.94495  0.34055  0.52204
V91   V   0.94495  0.65945  0.97796
V92   V   0.94495  0.84055  0.47796
V93   V   0.97796  0.05505  0.84055
V94   V   0.97796  0.44495  0.34055
V95   V   0.97796  0.55505  0.15945
V96   V   0.97796  0.94495  0.65945
E1    E   0.00000  0.25000  0.02204
E2    E   0.00000  0.25000  0.22796
E3    E   0.00000  0.25000  0.52204
E4    E   0.00000  0.25000  0.72796
E5    E   0.00000  0.75000  0.27204
E6    E   0.00000  0.75000  0.47796
E7    E   0.00000  0.75000  0.77204
E8    E   0.00000  0.75000  0.97796
E9    E   0.02204  0.00000  0.25000
E10   E   0.02204  0.50000  0.75000
E11   E   0.03426  0.12500  0.78426
E12   E   0.03426  0.37500  0.28426
E13   E   0.03426  0.62500  0.21574
E14   E   0.03426  0.87500  0.71574
E15   E   0.03426  0.12500  0.78426
E16   E   0.03426  0.37500  0.28426
E17   E   0.03426  0.62500  0.21574
E18   E   0.03426  0.87500  0.71574
E19   E   0.03855  0.10725  0.43130
E20   E   0.03855  0.39275  0.93130
E21   E   0.03855  0.60725  0.56870
E22   E   0.03855  0.89275  0.06870
E23   E   0.06870  0.03855  0.89275
E24   E   0.06870  0.46145  0.39275
E25   E   0.06870  0.53855  0.10725
E26   E   0.06870  0.96145  0.60725
E27   E   0.07280  0.17720  0.62500
E28   E   0.07280  0.32280  0.12500
E29   E   0.07280  0.67720  0.37500
E30   E   0.07280  0.82280  0.87500
E31   E   0.07280  0.17720  0.62500
E32   E   0.07280  0.32280  0.12500
E33   E   0.07280  0.67720  0.37500
E34   E   0.07280  0.82280  0.87500
E35   E   0.10725  0.06870  0.53855
E36   E   0.10725  0.43130  0.03855
E37   E   0.10725  0.56870  0.46145
E38   E   0.10725  0.93130  0.96145
E39   E   0.12500  0.07280  0.32280
E40   E   0.12500  0.07280  0.32280
E41   E   0.12500  0.21574  0.46574
E42   E   0.12500  0.28426  0.96574
E43   E   0.12500  0.42720  0.82280
E44   E   0.12500  0.57280  0.67720
E45   E   0.12500  0.71574  0.53426
E46   E   0.12500  0.78426  0.03426
E47   E   0.12500  0.78426  0.03426
E48   E   0.12500  0.92720  0.17720
E49   E   0.12500  0.92720  0.17720
E50   E   0.14275  0.21145  0.81870
E51   E   0.14275  0.28855  0.31870
E52   E   0.14275  0.71145  0.18130
E53   E   0.14275  0.78855  0.68130
E54   E   0.17720  0.12500  0.92720
E55   E   0.17720  0.37500  0.42720
E56   E   0.17720  0.62500  0.07280
E57   E   0.17720  0.87500  0.57280
E58   E   0.17720  0.12500  0.92720
E59   E   0.17720  0.37500  0.42720
E60   E   0.17720  0.62500  0.07280
E61   E   0.17720  0.87500  0.57280
E62   E   0.18130  0.14275  0.71145
E63   E   0.18130  0.35725  0.21145
E64   E   0.18130  0.64275  0.28855
E65   E   0.18130  0.85725  0.78855
E66   E   0.21145  0.18130  0.35725
E67   E   0.21145  0.31870  0.85725
E68   E   0.21145  0.68130  0.64275
E69   E   0.21145  0.81870  0.14275
E70   E   0.21574  0.03426  0.62500
E71   E   0.21574  0.03426  0.62500
E72   E   0.21574  0.46574  0.12500
E73   E   0.21574  0.53426  0.37500
E74   E   0.21574  0.96574  0.87500
E75   E   0.22796  0.00000  0.25000
E76   E   0.22796  0.50000  0.75000
E77   E   0.25000  0.02204  0.00000
E78   E   0.25000  0.22796  0.00000
E79   E   0.25000  0.27204  0.50000
E80   E   0.25000  0.47796  0.50000
E81   E   0.25000  0.52204  0.00000
E82   E   0.25000  0.72796  0.00000
E83   E   0.25000  0.77204  0.50000
E84   E   0.25000  0.97796  0.50000
E85   E   0.27204  0.00000  0.75000
E86   E   0.27204  0.50000  0.25000
E87   E   0.28426  0.03426  0.37500
E88   E   0.28426  0.03426  0.37500
E89   E   0.28426  0.46574  0.87500
E90   E   0.28426  0.53426  0.62500
E91   E   0.28426  0.96574  0.12500
E92   E   0.28855  0.18130  0.64275
E93   E   0.28855  0.31870  0.14275
E94   E   0.28855  0.68130  0.35725
E95   E   0.28855  0.81870  0.85725
E96   E   0.31870  0.14275  0.28855
E97   E   0.31870  0.35725  0.78855
E98   E   0.31870  0.64275  0.71145
E99   E   0.31870  0.85725  0.21145
E100  E   0.32280  0.12500  0.07280
E101  E   0.32280  0.12500  0.07280
E102  E   0.32280  0.37500  0.57280
E103  E   0.32280  0.62500  0.92720
E104  E   0.32280  0.87500  0.42720
E105  E   0.35725  0.21145  0.18130
E106  E   0.35725  0.28855  0.68130
E107  E   0.35725  0.71145  0.81870
E108  E   0.35725  0.78855  0.31870
E109  E   0.37500  0.07280  0.67720
E110  E   0.37500  0.07280  0.67720
E111  E   0.37500  0.21574  0.53426
E112  E   0.37500  0.28426  0.03426
E113  E   0.37500  0.28426  0.03426
E114  E   0.37500  0.42720  0.17720
E115  E   0.37500  0.42720  0.17720
E116  E   0.37500  0.57280  0.32280
E117  E   0.37500  0.71574  0.46574
E118  E   0.37500  0.78426  0.96574
E119  E   0.37500  0.92720  0.82280
E120  E   0.39275  0.06870  0.46145
E121  E   0.39275  0.43130  0.96145
E122  E   0.39275  0.56870  0.53855
E123  E   0.39275  0.93130  0.03855
E124  E   0.42720  0.17720  0.37500
E125  E   0.42720  0.17720  0.37500
E126  E   0.42720  0.32280  0.87500
E127  E   0.42720  0.67720  0.62500
E128  E   0.42720  0.82280  0.12500
E129  E   0.43130  0.03855  0.10725
E130  E   0.43130  0.46145  0.60725
E131  E   0.43130  0.53855  0.89275
E132  E   0.43130  0.96145  0.39275
E133  E   0.46145  0.10725  0.56870
E134  E   0.46145  0.39275  0.06870
E135  E   0.46145  0.60725  0.43130
E136  E   0.46145  0.89275  0.93130
E137  E   0.46574  0.12500  0.21574
E138  E   0.46574  0.37500  0.71574
E139  E   0.46574  0.62500  0.78426
E140  E   0.46574  0.87500  0.28426
E141  E   0.47796  0.00000  0.75000
E142  E   0.47796  0.50000  0.25000
E143  E   0.50000  0.25000  0.27204
E144  E   0.50000  0.25000  0.47796
E145  E   0.50000  0.25000  0.77204
E146  E   0.50000  0.25000  0.97796
E147  E   0.50000  0.75000  0.02204
E148  E   0.50000  0.75000  0.22796
E149  E   0.50000  0.75000  0.52204
E150  E   0.50000  0.75000  0.72796
E151  E   0.52204  0.00000  0.25000
E152  E   0.52204  0.50000  0.75000
E153  E   0.53426  0.12500  0.71574
E154  E   0.53426  0.37500  0.21574
E155  E   0.53426  0.62500  0.28426
E156  E   0.53426  0.87500  0.78426
E157  E   0.53855  0.10725  0.06870
E158  E   0.53855  0.39275  0.56870
E159  E   0.53855  0.60725  0.93130
E160  E   0.53855  0.89275  0.43130
E161  E   0.56870  0.03855  0.60725
E162  E   0.56870  0.46145  0.10725
E163  E   0.56870  0.53855  0.39275
E164  E   0.56870  0.96145  0.89275
E165  E   0.57280  0.17720  0.87500
E166  E   0.57280  0.17720  0.87500
E167  E   0.57280  0.32280  0.37500
E168  E   0.57280  0.67720  0.12500
E169  E   0.57280  0.82280  0.62500
E170  E   0.60725  0.06870  0.96145
E171  E   0.60725  0.43130  0.46145
E172  E   0.60725  0.56870  0.03855
E173  E   0.60725  0.93130  0.53855
E174  E   0.62500  0.07280  0.17720
E175  E   0.62500  0.07280  0.17720
E176  E   0.62500  0.21574  0.03426
E177  E   0.62500  0.21574  0.03426
E178  E   0.62500  0.28426  0.53426
E179  E   0.62500  0.42720  0.67720
E180  E   0.62500  0.57280  0.82280
E181  E   0.62500  0.71574  0.96574
E182  E   0.62500  0.78426  0.46574
E183  E   0.62500  0.92720  0.32280
E184  E   0.64275  0.21145  0.68130
E185  E   0.64275  0.28855  0.18130
E186  E   0.64275  0.71145  0.31870
E187  E   0.64275  0.78855  0.81870
E188  E   0.67720  0.12500  0.57280
E189  E   0.67720  0.37500  0.07280
E190  E   0.67720  0.37500  0.07280
E191  E   0.67720  0.62500  0.42720
E192  E   0.67720  0.87500  0.92720
E193  E   0.68130  0.14275  0.78855
E194  E   0.68130  0.35725  0.28855
E195  E   0.68130  0.64275  0.21145
E196  E   0.68130  0.85725  0.71145
E197  E   0.71145  0.18130  0.14275
E198  E   0.71145  0.31870  0.64275
E199  E   0.71145  0.68130  0.85725
E200  E   0.71145  0.81870  0.35725
E201  E   0.71574  0.03426  0.87500
E202  E   0.71574  0.03426  0.87500
E203  E   0.71574  0.46574  0.37500
E204  E   0.71574  0.53426  0.12500
E205  E   0.71574  0.96574  0.62500
E206  E   0.72796  0.00000  0.25000
E207  E   0.72796  0.50000  0.75000
E208  E   0.75000  0.02204  0.50000
E209  E   0.75000  0.22796  0.50000
E210  E   0.75000  0.27204  0.00000
E211  E   0.75000  0.47796  0.00000
E212  E   0.75000  0.52204  0.50000
E213  E   0.75000  0.72796  0.50000
E214  E   0.75000  0.77204  0.00000
E215  E   0.75000  0.97796  0.00000
E216  E   0.77204  0.00000  0.75000
E217  E   0.77204  0.50000  0.25000
E218  E   0.78426  0.03426  0.12500
E219  E   0.78426  0.03426  0.12500
E220  E   0.78426  0.46574  0.62500
E221  E   0.78426  0.53426  0.87500
E222  E   0.78426  0.96574  0.37500
E223  E   0.78855  0.18130  0.85725
E224  E   0.78855  0.31870  0.35725
E225  E   0.78855  0.68130  0.14275
E226  E   0.78855  0.81870  0.64275
E227  E   0.81870  0.14275  0.21145
E228  E   0.81870  0.35725  0.71145
E229  E   0.81870  0.64275  0.78855
E230  E   0.81870  0.85725  0.28855
E231  E   0.82280  0.12500  0.42720
E232  E   0.82280  0.37500  0.92720
E233  E   0.82280  0.62500  0.57280
E234  E   0.82280  0.87500  0.07280
E235  E   0.82280  0.87500  0.07280
E236  E   0.85725  0.21145  0.31870
E237  E   0.85725  0.28855  0.81870
E238  E   0.85725  0.71145  0.68130
E239  E   0.85725  0.78855  0.18130
E240  E   0.87500  0.07280  0.82280
E241  E   0.87500  0.07280  0.82280
E242  E   0.87500  0.21574  0.96574
E243  E   0.87500  0.28426  0.46574
E244  E   0.87500  0.42720  0.32280
E245  E   0.87500  0.57280  0.17720
E246  E   0.87500  0.57280  0.17720
E247  E   0.87500  0.71574  0.03426
E248  E   0.87500  0.71574  0.03426
E249  E   0.87500  0.78426  0.53426
E250  E   0.87500  0.92720  0.67720
E251  E   0.89275  0.06870  0.03855
E252  E   0.89275  0.43130  0.53855
E253  E   0.89275  0.56870  0.96145
E254  E   0.89275  0.93130  0.46145
E255  E   0.92720  0.17720  0.12500
E256  E   0.92720  0.17720  0.12500
E257  E   0.92720  0.32280  0.62500
E258  E   0.92720  0.67720  0.87500
E259  E   0.92720  0.82280  0.37500
E260  E   0.93130  0.03855  0.39275
E261  E   0.93130  0.46145  0.89275
E262  E   0.93130  0.53855  0.60725
E263  E   0.93130  0.96145  0.10725
E264  E   0.96145  0.10725  0.93130
E265  E   0.96145  0.39275  0.43130
E266  E   0.96145  0.60725  0.06870
E267  E   0.96145  0.89275  0.56870
E268  E   0.96574  0.12500  0.28426
E269  E   0.96574  0.37500  0.78426
E270  E   0.96574  0.62500  0.71574
E271  E   0.96574  0.87500  0.21574
E272  E   0.97796  0.00000  0.75000
E273  E   0.97796  0.50000  0.25000
loop_
