data_flu-e_Fm-3m  hall_number: 523, V_con: 6
_audit_creation_date              2025-03-06
_audit_creation_method            'MOFbuilder_1.0'
_symmetry_space_group_name_H-M    'P1'
_symmetry_Int_Tables_number       1
_symmetry_cell_setting            triclinic
loop_
_symmetry_equiv_pos_as_xyz
  x,y,z
_cell_length_a                    34.1421
_cell_length_b                    34.1421
_cell_length_c                    34.1421
_cell_angle_alpha                 90.0
_cell_angle_beta                  90.0
_cell_angle_gamma                 90.0
loop_
_atom_site_label
_atom_site_type_symbol
_atom_site_fract_x
_atom_site_fract_y
_atom_site_fract_z
V1    V   0.14645  0.14645  0.35355
V2    V   0.14645  0.14645  0.64645
V3    V   0.14645  0.14645  0.35355
V4    V   0.14645  0.14645  0.64645
V5    V   0.14645  0.35355  0.14645
V6    V   0.14645  0.35355  0.85355
V7    V   0.14645  0.35355  0.14645
V8    V   0.14645  0.35355  0.85355
V9    V   0.14645  0.64645  0.14645
V10   V   0.14645  0.64645  0.14645
V11   V   0.14645  0.64645  0.85355
V12   V   0.14645  0.85355  0.35355
V13   V   0.14645  0.85355  0.35355
V14   V   0.14645  0.85355  0.64645
V15   V   0.14645  0.14645  0.35355
V16   V   0.14645  0.14645  0.64645
V17   V   0.14645  0.35355  0.14645
V18   V   0.14645  0.35355  0.85355
V19   V   0.14645  0.64645  0.14645
V20   V   0.14645  0.64645  0.85355
V21   V   0.14645  0.85355  0.35355
V22   V   0.14645  0.85355  0.64645
V23   V   0.35355  0.14645  0.14645
V24   V   0.35355  0.14645  0.85355
V25   V   0.35355  0.35355  0.35355
V26   V   0.35355  0.35355  0.64645
V27   V   0.35355  0.64645  0.35355
V28   V   0.35355  0.64645  0.64645
V29   V   0.35355  0.85355  0.14645
V30   V   0.35355  0.85355  0.85355
V31   V   0.35355  0.14645  0.14645
V32   V   0.35355  0.14645  0.85355
V33   V   0.35355  0.14645  0.14645
V34   V   0.35355  0.14645  0.85355
V35   V   0.35355  0.35355  0.35355
V36   V   0.35355  0.35355  0.64645
V37   V   0.35355  0.35355  0.35355
V38   V   0.35355  0.35355  0.64645
V39   V   0.35355  0.64645  0.35355
V40   V   0.35355  0.64645  0.35355
V41   V   0.35355  0.64645  0.64645
V42   V   0.35355  0.85355  0.14645
V43   V   0.35355  0.85355  0.14645
V44   V   0.35355  0.85355  0.85355
V45   V   0.64645  0.14645  0.14645
V46   V   0.64645  0.14645  0.14645
V47   V   0.64645  0.14645  0.85355
V48   V   0.64645  0.14645  0.14645
V49   V   0.64645  0.14645  0.85355
V50   V   0.64645  0.35355  0.35355
V51   V   0.64645  0.35355  0.64645
V52   V   0.64645  0.35355  0.35355
V53   V   0.64645  0.35355  0.35355
V54   V   0.64645  0.35355  0.64645
V55   V   0.64645  0.64645  0.35355
V56   V   0.64645  0.64645  0.35355
V57   V   0.64645  0.64645  0.64645
V58   V   0.64645  0.85355  0.14645
V59   V   0.64645  0.85355  0.14645
V60   V   0.64645  0.85355  0.85355
V61   V   0.85355  0.14645  0.35355
V62   V   0.85355  0.14645  0.35355
V63   V   0.85355  0.14645  0.64645
V64   V   0.85355  0.14645  0.35355
V65   V   0.85355  0.14645  0.64645
V66   V   0.85355  0.35355  0.14645
V67   V   0.85355  0.35355  0.85355
V68   V   0.85355  0.35355  0.14645
V69   V   0.85355  0.35355  0.14645
V70   V   0.85355  0.35355  0.85355
V71   V   0.85355  0.64645  0.14645
V72   V   0.85355  0.64645  0.14645
V73   V   0.85355  0.64645  0.85355
V74   V   0.85355  0.85355  0.35355
V75   V   0.85355  0.85355  0.35355
V76   V   0.85355  0.85355  0.64645
E1    E   0.00000  0.14645  0.35355
E2    E   0.00000  0.14645  0.64645
E3    E   0.00000  0.14645  0.35355
E4    E   0.00000  0.14645  0.64645
E5    E   0.00000  0.35355  0.14645
E6    E   0.00000  0.35355  0.85355
E7    E   0.00000  0.35355  0.14645
E8    E   0.00000  0.35355  0.85355
E9    E   0.00000  0.64645  0.14645
E10   E   0.00000  0.64645  0.14645
E11   E   0.00000  0.64645  0.85355
E12   E   0.00000  0.85355  0.35355
E13   E   0.00000  0.85355  0.35355
E14   E   0.00000  0.85355  0.64645
E15   E   0.14645  0.00000  0.35355
E16   E   0.14645  0.00000  0.64645
E17   E   0.14645  0.14645  0.50000
E18   E   0.14645  0.25000  0.25000
E19   E   0.14645  0.25000  0.75000
E20   E   0.14645  0.35355  0.00000
E21   E   0.14645  0.50000  0.14645
E22   E   0.14645  0.50000  0.85355
E23   E   0.14645  0.64645  0.00000
E24   E   0.14645  0.75000  0.25000
E25   E   0.14645  0.75000  0.75000
E26   E   0.14645  0.85355  0.50000
E27   E   0.14645  0.00000  0.35355
E28   E   0.14645  0.00000  0.64645
E29   E   0.14645  0.14645  0.50000
E30   E   0.14645  0.35355  0.00000
E31   E   0.14645  0.50000  0.14645
E32   E   0.14645  0.50000  0.85355
E33   E   0.14645  0.64645  0.00000
E34   E   0.14645  0.85355  0.50000
E35   E   0.25000  0.14645  0.25000
E36   E   0.25000  0.14645  0.75000
E37   E   0.25000  0.25000  0.14645
E38   E   0.25000  0.25000  0.35355
E39   E   0.25000  0.25000  0.64645
E40   E   0.25000  0.25000  0.85355
E41   E   0.25000  0.35355  0.25000
E42   E   0.25000  0.35355  0.75000
E43   E   0.25000  0.64645  0.25000
E44   E   0.25000  0.64645  0.75000
E45   E   0.25000  0.75000  0.14645
E46   E   0.25000  0.75000  0.35355
E47   E   0.25000  0.75000  0.64645
E48   E   0.25000  0.75000  0.85355
E49   E   0.25000  0.85355  0.25000
E50   E   0.25000  0.85355  0.75000
E51   E   0.35355  0.00000  0.14645
E52   E   0.35355  0.00000  0.85355
E53   E   0.35355  0.14645  0.00000
E54   E   0.35355  0.35355  0.50000
E55   E   0.35355  0.50000  0.35355
E56   E   0.35355  0.50000  0.64645
E57   E   0.35355  0.64645  0.50000
E58   E   0.35355  0.85355  0.00000
E59   E   0.35355  0.00000  0.14645
E60   E   0.35355  0.00000  0.85355
E61   E   0.35355  0.14645  0.00000
E62   E   0.35355  0.25000  0.25000
E63   E   0.35355  0.25000  0.75000
E64   E   0.35355  0.35355  0.50000
E65   E   0.35355  0.50000  0.35355
E66   E   0.35355  0.50000  0.64645
E67   E   0.35355  0.64645  0.50000
E68   E   0.35355  0.75000  0.25000
E69   E   0.35355  0.75000  0.75000
E70   E   0.35355  0.85355  0.00000
E71   E   0.50000  0.14645  0.14645
E72   E   0.50000  0.14645  0.85355
E73   E   0.50000  0.14645  0.14645
E74   E   0.50000  0.14645  0.85355
E75   E   0.50000  0.35355  0.35355
E76   E   0.50000  0.35355  0.64645
E77   E   0.50000  0.35355  0.35355
E78   E   0.50000  0.35355  0.64645
E79   E   0.50000  0.64645  0.35355
E80   E   0.50000  0.64645  0.35355
E81   E   0.50000  0.64645  0.64645
E82   E   0.50000  0.85355  0.14645
E83   E   0.50000  0.85355  0.14645
E84   E   0.50000  0.85355  0.85355
E85   E   0.64645  0.00000  0.14645
E86   E   0.64645  0.00000  0.14645
E87   E   0.64645  0.00000  0.85355
E88   E   0.64645  0.14645  0.00000
E89   E   0.64645  0.14645  0.00000
E90   E   0.64645  0.25000  0.25000
E91   E   0.64645  0.25000  0.75000
E92   E   0.64645  0.35355  0.50000
E93   E   0.64645  0.35355  0.50000
E94   E   0.64645  0.50000  0.35355
E95   E   0.64645  0.50000  0.35355
E96   E   0.64645  0.50000  0.64645
E97   E   0.64645  0.64645  0.50000
E98   E   0.64645  0.75000  0.25000
E99   E   0.64645  0.75000  0.75000
E100  E   0.64645  0.85355  0.00000
E101  E   0.75000  0.14645  0.25000
E102  E   0.75000  0.14645  0.75000
E103  E   0.75000  0.25000  0.14645
E104  E   0.75000  0.25000  0.35355
E105  E   0.75000  0.25000  0.64645
E106  E   0.75000  0.25000  0.85355
E107  E   0.75000  0.35355  0.25000
E108  E   0.75000  0.35355  0.75000
E109  E   0.75000  0.64645  0.25000
E110  E   0.75000  0.64645  0.75000
E111  E   0.75000  0.75000  0.14645
E112  E   0.75000  0.75000  0.35355
E113  E   0.75000  0.75000  0.64645
E114  E   0.75000  0.75000  0.85355
E115  E   0.75000  0.85355  0.25000
E116  E   0.75000  0.85355  0.75000
E117  E   0.85355  0.00000  0.35355
E118  E   0.85355  0.00000  0.35355
E119  E   0.85355  0.00000  0.64645
E120  E   0.85355  0.14645  0.50000
E121  E   0.85355  0.14645  0.50000
E122  E   0.85355  0.25000  0.25000
E123  E   0.85355  0.25000  0.75000
E124  E   0.85355  0.35355  0.00000
E125  E   0.85355  0.35355  0.00000
E126  E   0.85355  0.50000  0.14645
E127  E   0.85355  0.50000  0.14645
E128  E   0.85355  0.50000  0.85355
E129  E   0.85355  0.64645  0.00000
E130  E   0.85355  0.75000  0.25000
E131  E   0.85355  0.75000  0.75000
E132  E   0.85355  0.85355  0.50000
loop_
