data_fnf_Fd-3m:2  hall_number: 526, V_con: 5
_audit_creation_date              2025-03-06
_audit_creation_method            'MOFbuilder_1.0'
_symmetry_space_group_name_H-M    'P1'
_symmetry_Int_Tables_number       1
_symmetry_cell_setting            triclinic
loop_
_symmetry_equiv_pos_as_xyz
  x,y,z
_cell_length_a                    51.3783
_cell_length_b                    51.3783
_cell_length_c                    51.3783
_cell_angle_alpha                 90.0
_cell_angle_beta                  90.0
_cell_angle_gamma                 90.0
loop_
_atom_site_label
_atom_site_type_symbol
_atom_site_fract_x
_atom_site_fract_y
_atom_site_fract_z
V1    V   0.05619  0.05619  0.83144
V2    V   0.05619  0.19381  0.41856
V3    V   0.05619  0.33144  0.55619
V4    V   0.05619  0.41856  0.19381
V5    V   0.05619  0.55619  0.33144
V6    V   0.05619  0.69381  0.91856
V7    V   0.05619  0.83144  0.05619
V8    V   0.05619  0.91856  0.69381
V9    V   0.05619  0.05619  0.83144
V10   V   0.05619  0.19381  0.41856
V11   V   0.05619  0.33144  0.55619
V12   V   0.05619  0.41856  0.19381
V13   V   0.05619  0.55619  0.33144
V14   V   0.05619  0.69381  0.91856
V15   V   0.05619  0.83144  0.05619
V16   V   0.05619  0.91856  0.69381
V17   V   0.08144  0.30619  0.94381
V18   V   0.08144  0.30619  0.94381
V19   V   0.08144  0.44381  0.80619
V20   V   0.08144  0.44381  0.80619
V21   V   0.08144  0.80619  0.44381
V22   V   0.08144  0.80619  0.44381
V23   V   0.08144  0.94381  0.30619
V24   V   0.08144  0.94381  0.30619
V25   V   0.16856  0.30619  0.30619
V26   V   0.16856  0.30619  0.30619
V27   V   0.16856  0.44381  0.44381
V28   V   0.16856  0.44381  0.44381
V29   V   0.16856  0.80619  0.80619
V30   V   0.16856  0.94381  0.94381
V31   V   0.19381  0.05619  0.41856
V32   V   0.19381  0.05619  0.41856
V33   V   0.19381  0.19381  0.83144
V34   V   0.19381  0.33144  0.69381
V35   V   0.19381  0.41856  0.05619
V36   V   0.19381  0.41856  0.05619
V37   V   0.19381  0.55619  0.91856
V38   V   0.19381  0.69381  0.33144
V39   V   0.19381  0.83144  0.19381
V40   V   0.19381  0.91856  0.55619
V41   V   0.30619  0.08144  0.94381
V42   V   0.30619  0.16856  0.30619
V43   V   0.30619  0.30619  0.16856
V44   V   0.30619  0.44381  0.58144
V45   V   0.30619  0.58144  0.44381
V46   V   0.30619  0.66856  0.80619
V47   V   0.30619  0.80619  0.66856
V48   V   0.30619  0.94381  0.08144
V49   V   0.30619  0.08144  0.94381
V50   V   0.30619  0.16856  0.30619
V51   V   0.30619  0.30619  0.16856
V52   V   0.30619  0.44381  0.58144
V53   V   0.30619  0.58144  0.44381
V54   V   0.30619  0.66856  0.80619
V55   V   0.30619  0.80619  0.66856
V56   V   0.30619  0.94381  0.08144
V57   V   0.33144  0.05619  0.55619
V58   V   0.33144  0.05619  0.55619
V59   V   0.33144  0.19381  0.69381
V60   V   0.33144  0.55619  0.05619
V61   V   0.33144  0.55619  0.05619
V62   V   0.33144  0.69381  0.19381
V63   V   0.41856  0.05619  0.19381
V64   V   0.41856  0.05619  0.19381
V65   V   0.41856  0.19381  0.05619
V66   V   0.41856  0.19381  0.05619
V67   V   0.41856  0.55619  0.69381
V68   V   0.41856  0.69381  0.55619
V69   V   0.44381  0.08144  0.80619
V70   V   0.44381  0.16856  0.44381
V71   V   0.44381  0.30619  0.58144
V72   V   0.44381  0.44381  0.16856
V73   V   0.44381  0.58144  0.30619
V74   V   0.44381  0.66856  0.94381
V75   V   0.44381  0.80619  0.08144
V76   V   0.44381  0.94381  0.66856
V77   V   0.44381  0.08144  0.80619
V78   V   0.44381  0.16856  0.44381
V79   V   0.44381  0.30619  0.58144
V80   V   0.44381  0.44381  0.16856
V81   V   0.44381  0.58144  0.30619
V82   V   0.44381  0.66856  0.94381
V83   V   0.44381  0.80619  0.08144
V84   V   0.44381  0.94381  0.66856
V85   V   0.55619  0.05619  0.33144
V86   V   0.55619  0.05619  0.33144
V87   V   0.55619  0.19381  0.91856
V88   V   0.55619  0.33144  0.05619
V89   V   0.55619  0.33144  0.05619
V90   V   0.55619  0.41856  0.69381
V91   V   0.55619  0.55619  0.83144
V92   V   0.55619  0.69381  0.41856
V93   V   0.55619  0.83144  0.55619
V94   V   0.55619  0.91856  0.19381
V95   V   0.58144  0.30619  0.44381
V96   V   0.58144  0.30619  0.44381
V97   V   0.58144  0.44381  0.30619
V98   V   0.58144  0.44381  0.30619
V99   V   0.58144  0.80619  0.94381
V100  V   0.58144  0.94381  0.80619
V101  V   0.66856  0.30619  0.80619
V102  V   0.66856  0.30619  0.80619
V103  V   0.66856  0.44381  0.94381
V104  V   0.66856  0.44381  0.94381
V105  V   0.66856  0.80619  0.30619
V106  V   0.66856  0.80619  0.30619
V107  V   0.66856  0.94381  0.44381
V108  V   0.66856  0.94381  0.44381
V109  V   0.69381  0.05619  0.91856
V110  V   0.69381  0.05619  0.91856
V111  V   0.69381  0.19381  0.33144
V112  V   0.69381  0.33144  0.19381
V113  V   0.69381  0.41856  0.55619
V114  V   0.69381  0.55619  0.41856
V115  V   0.69381  0.69381  0.83144
V116  V   0.69381  0.83144  0.69381
V117  V   0.69381  0.91856  0.05619
V118  V   0.69381  0.91856  0.05619
V119  V   0.80619  0.08144  0.44381
V120  V   0.80619  0.08144  0.44381
V121  V   0.80619  0.16856  0.80619
V122  V   0.80619  0.30619  0.66856
V123  V   0.80619  0.30619  0.66856
V124  V   0.80619  0.44381  0.08144
V125  V   0.80619  0.44381  0.08144
V126  V   0.80619  0.58144  0.94381
V127  V   0.80619  0.66856  0.30619
V128  V   0.80619  0.66856  0.30619
V129  V   0.80619  0.80619  0.16856
V130  V   0.80619  0.94381  0.58144
V131  V   0.83144  0.05619  0.05619
V132  V   0.83144  0.05619  0.05619
V133  V   0.83144  0.19381  0.19381
V134  V   0.83144  0.55619  0.55619
V135  V   0.83144  0.69381  0.69381
V136  V   0.91856  0.05619  0.69381
V137  V   0.91856  0.05619  0.69381
V138  V   0.91856  0.19381  0.55619
V139  V   0.91856  0.55619  0.19381
V140  V   0.91856  0.69381  0.05619
V141  V   0.91856  0.69381  0.05619
V142  V   0.94381  0.08144  0.30619
V143  V   0.94381  0.08144  0.30619
V144  V   0.94381  0.16856  0.94381
V145  V   0.94381  0.30619  0.08144
V146  V   0.94381  0.30619  0.08144
V147  V   0.94381  0.44381  0.66856
V148  V   0.94381  0.44381  0.66856
V149  V   0.94381  0.58144  0.80619
V150  V   0.94381  0.66856  0.44381
V151  V   0.94381  0.66856  0.44381
V152  V   0.94381  0.80619  0.58144
V153  V   0.94381  0.94381  0.16856
E1    E   0.00000  0.11237  0.88763
E2    E   0.00000  0.11237  0.88763
E3    E   0.00000  0.13763  0.36237
E4    E   0.00000  0.13763  0.36237
E5    E   0.00000  0.36237  0.13763
E6    E   0.00000  0.36237  0.13763
E7    E   0.00000  0.38763  0.61237
E8    E   0.00000  0.38763  0.61237
E9    E   0.00000  0.61237  0.38763
E10   E   0.00000  0.61237  0.38763
E11   E   0.00000  0.63763  0.86237
E12   E   0.00000  0.63763  0.86237
E13   E   0.00000  0.86237  0.63763
E14   E   0.00000  0.86237  0.63763
E15   E   0.00000  0.88763  0.11237
E16   E   0.00000  0.88763  0.11237
E17   E   0.01263  0.01263  0.30619
E18   E   0.01263  0.23737  0.94381
E19   E   0.01263  0.30619  0.01263
E20   E   0.01263  0.44381  0.73737
E21   E   0.01263  0.51263  0.80619
E22   E   0.01263  0.73737  0.44381
E23   E   0.01263  0.80619  0.51263
E24   E   0.01263  0.94381  0.23737
E25   E   0.01263  0.01263  0.30619
E26   E   0.01263  0.23737  0.94381
E27   E   0.01263  0.30619  0.01263
E28   E   0.01263  0.44381  0.73737
E29   E   0.01263  0.51263  0.80619
E30   E   0.01263  0.73737  0.44381
E31   E   0.01263  0.80619  0.51263
E32   E   0.01263  0.94381  0.23737
E33   E   0.05619  0.26263  0.48737
E34   E   0.05619  0.48737  0.26263
E35   E   0.05619  0.76263  0.98737
E36   E   0.05619  0.98737  0.76263
E37   E   0.08144  0.37500  0.87500
E38   E   0.08144  0.87500  0.37500
E39   E   0.11237  0.00000  0.88763
E40   E   0.11237  0.25000  0.36237
E41   E   0.11237  0.36237  0.25000
E42   E   0.11237  0.38763  0.50000
E43   E   0.11237  0.50000  0.38763
E44   E   0.11237  0.75000  0.86237
E45   E   0.11237  0.86237  0.75000
E46   E   0.11237  0.88763  0.00000
E47   E   0.11237  0.00000  0.88763
E48   E   0.11237  0.25000  0.36237
E49   E   0.11237  0.36237  0.25000
E50   E   0.11237  0.38763  0.50000
E51   E   0.11237  0.50000  0.38763
E52   E   0.11237  0.75000  0.86237
E53   E   0.11237  0.86237  0.75000
E54   E   0.11237  0.88763  0.00000
E55   E   0.12500  0.12500  0.41856
E56   E   0.12500  0.12500  0.83144
E57   E   0.12500  0.33144  0.62500
E58   E   0.12500  0.41856  0.12500
E59   E   0.12500  0.62500  0.33144
E60   E   0.12500  0.62500  0.91856
E61   E   0.12500  0.83144  0.12500
E62   E   0.12500  0.91856  0.62500
E63   E   0.13763  0.00000  0.36237
E64   E   0.13763  0.25000  0.88763
E65   E   0.13763  0.36237  0.00000
E66   E   0.13763  0.38763  0.75000
E67   E   0.13763  0.50000  0.86237
E68   E   0.13763  0.75000  0.38763
E69   E   0.13763  0.86237  0.50000
E70   E   0.13763  0.88763  0.25000
E71   E   0.13763  0.00000  0.36237
E72   E   0.13763  0.25000  0.88763
E73   E   0.13763  0.36237  0.00000
E74   E   0.13763  0.38763  0.75000
E75   E   0.13763  0.50000  0.86237
E76   E   0.13763  0.75000  0.38763
E77   E   0.13763  0.86237  0.50000
E78   E   0.13763  0.88763  0.25000
E79   E   0.16856  0.37500  0.37500
E80   E   0.16856  0.87500  0.87500
E81   E   0.19381  0.26263  0.76263
E82   E   0.19381  0.48737  0.98737
E83   E   0.19381  0.76263  0.26263
E84   E   0.19381  0.98737  0.48737
E85   E   0.23737  0.01263  0.94381
E86   E   0.23737  0.23737  0.30619
E87   E   0.23737  0.30619  0.23737
E88   E   0.23737  0.44381  0.51263
E89   E   0.23737  0.51263  0.44381
E90   E   0.23737  0.73737  0.80619
E91   E   0.23737  0.80619  0.73737
E92   E   0.23737  0.94381  0.01263
E93   E   0.23737  0.01263  0.94381
E94   E   0.23737  0.23737  0.30619
E95   E   0.23737  0.30619  0.23737
E96   E   0.23737  0.44381  0.51263
E97   E   0.23737  0.51263  0.44381
E98   E   0.23737  0.73737  0.80619
E99   E   0.23737  0.80619  0.73737
E100  E   0.23737  0.94381  0.01263
E101  E   0.25000  0.11237  0.36237
E102  E   0.25000  0.11237  0.36237
E103  E   0.25000  0.13763  0.88763
E104  E   0.25000  0.13763  0.88763
E105  E   0.25000  0.36237  0.11237
E106  E   0.25000  0.36237  0.11237
E107  E   0.25000  0.38763  0.63763
E108  E   0.25000  0.38763  0.63763
E109  E   0.25000  0.61237  0.86237
E110  E   0.25000  0.61237  0.86237
E111  E   0.25000  0.63763  0.38763
E112  E   0.25000  0.63763  0.38763
E113  E   0.25000  0.86237  0.61237
E114  E   0.25000  0.86237  0.61237
E115  E   0.25000  0.88763  0.13763
E116  E   0.25000  0.88763  0.13763
E117  E   0.26263  0.05619  0.48737
E118  E   0.26263  0.19381  0.76263
E119  E   0.26263  0.26263  0.69381
E120  E   0.26263  0.48737  0.05619
E121  E   0.26263  0.55619  0.98737
E122  E   0.26263  0.69381  0.26263
E123  E   0.26263  0.76263  0.19381
E124  E   0.26263  0.98737  0.55619
E125  E   0.30619  0.01263  0.01263
E126  E   0.30619  0.01263  0.01263
E127  E   0.30619  0.23737  0.23737
E128  E   0.30619  0.23737  0.23737
E129  E   0.30619  0.51263  0.51263
E130  E   0.30619  0.73737  0.73737
E131  E   0.33144  0.12500  0.62500
E132  E   0.33144  0.62500  0.12500
E133  E   0.36237  0.00000  0.13763
E134  E   0.36237  0.11237  0.25000
E135  E   0.36237  0.13763  0.00000
E136  E   0.36237  0.25000  0.11237
E137  E   0.36237  0.50000  0.63763
E138  E   0.36237  0.61237  0.75000
E139  E   0.36237  0.63763  0.50000
E140  E   0.36237  0.75000  0.61237
E141  E   0.36237  0.00000  0.13763
E142  E   0.36237  0.11237  0.25000
E143  E   0.36237  0.13763  0.00000
E144  E   0.36237  0.25000  0.11237
E145  E   0.36237  0.50000  0.63763
E146  E   0.36237  0.61237  0.75000
E147  E   0.36237  0.63763  0.50000
E148  E   0.36237  0.75000  0.61237
E149  E   0.37500  0.08144  0.87500
E150  E   0.37500  0.16856  0.37500
E151  E   0.37500  0.37500  0.16856
E152  E   0.37500  0.37500  0.58144
E153  E   0.37500  0.58144  0.37500
E154  E   0.37500  0.66856  0.87500
E155  E   0.37500  0.87500  0.08144
E156  E   0.37500  0.87500  0.66856
E157  E   0.38763  0.00000  0.61237
E158  E   0.38763  0.11237  0.50000
E159  E   0.38763  0.13763  0.75000
E160  E   0.38763  0.25000  0.63763
E161  E   0.38763  0.50000  0.11237
E162  E   0.38763  0.61237  0.00000
E163  E   0.38763  0.63763  0.25000
E164  E   0.38763  0.75000  0.13763
E165  E   0.38763  0.00000  0.61237
E166  E   0.38763  0.11237  0.50000
E167  E   0.38763  0.13763  0.75000
E168  E   0.38763  0.25000  0.63763
E169  E   0.38763  0.50000  0.11237
E170  E   0.38763  0.61237  0.00000
E171  E   0.38763  0.63763  0.25000
E172  E   0.38763  0.75000  0.13763
E173  E   0.41856  0.12500  0.12500
E174  E   0.41856  0.62500  0.62500
E175  E   0.44381  0.01263  0.73737
E176  E   0.44381  0.01263  0.73737
E177  E   0.44381  0.23737  0.51263
E178  E   0.44381  0.23737  0.51263
E179  E   0.44381  0.51263  0.23737
E180  E   0.44381  0.51263  0.23737
E181  E   0.44381  0.73737  0.01263
E182  E   0.44381  0.73737  0.01263
E183  E   0.48737  0.05619  0.26263
E184  E   0.48737  0.19381  0.98737
E185  E   0.48737  0.26263  0.05619
E186  E   0.48737  0.48737  0.69381
E187  E   0.48737  0.55619  0.76263
E188  E   0.48737  0.69381  0.48737
E189  E   0.48737  0.76263  0.55619
E190  E   0.48737  0.98737  0.19381
E191  E   0.50000  0.11237  0.38763
E192  E   0.50000  0.11237  0.38763
E193  E   0.50000  0.13763  0.86237
E194  E   0.50000  0.13763  0.86237
E195  E   0.50000  0.36237  0.63763
E196  E   0.50000  0.36237  0.63763
E197  E   0.50000  0.38763  0.11237
E198  E   0.50000  0.38763  0.11237
E199  E   0.50000  0.61237  0.88763
E200  E   0.50000  0.61237  0.88763
E201  E   0.50000  0.63763  0.36237
E202  E   0.50000  0.63763  0.36237
E203  E   0.50000  0.86237  0.13763
E204  E   0.50000  0.86237  0.13763
E205  E   0.50000  0.88763  0.61237
E206  E   0.50000  0.88763  0.61237
E207  E   0.51263  0.01263  0.80619
E208  E   0.51263  0.01263  0.80619
E209  E   0.51263  0.23737  0.44381
E210  E   0.51263  0.23737  0.44381
E211  E   0.51263  0.30619  0.51263
E212  E   0.51263  0.44381  0.23737
E213  E   0.51263  0.44381  0.23737
E214  E   0.51263  0.51263  0.30619
E215  E   0.51263  0.73737  0.94381
E216  E   0.51263  0.80619  0.01263
E217  E   0.51263  0.80619  0.01263
E218  E   0.51263  0.94381  0.73737
E219  E   0.55619  0.26263  0.98737
E220  E   0.55619  0.48737  0.76263
E221  E   0.55619  0.76263  0.48737
E222  E   0.55619  0.98737  0.26263
E223  E   0.58144  0.37500  0.37500
E224  E   0.58144  0.87500  0.87500
E225  E   0.61237  0.00000  0.38763
E226  E   0.61237  0.25000  0.86237
E227  E   0.61237  0.36237  0.75000
E228  E   0.61237  0.38763  0.00000
E229  E   0.61237  0.50000  0.88763
E230  E   0.61237  0.75000  0.36237
E231  E   0.61237  0.86237  0.25000
E232  E   0.61237  0.88763  0.50000
E233  E   0.61237  0.00000  0.38763
E234  E   0.61237  0.25000  0.86237
E235  E   0.61237  0.36237  0.75000
E236  E   0.61237  0.38763  0.00000
E237  E   0.61237  0.50000  0.88763
E238  E   0.61237  0.75000  0.36237
E239  E   0.61237  0.86237  0.25000
E240  E   0.61237  0.88763  0.50000
E241  E   0.62500  0.12500  0.33144
E242  E   0.62500  0.12500  0.91856
E243  E   0.62500  0.33144  0.12500
E244  E   0.62500  0.41856  0.62500
E245  E   0.62500  0.62500  0.41856
E246  E   0.62500  0.62500  0.83144
E247  E   0.62500  0.83144  0.62500
E248  E   0.62500  0.91856  0.12500
E249  E   0.63763  0.00000  0.86237
E250  E   0.63763  0.25000  0.38763
E251  E   0.63763  0.36237  0.50000
E252  E   0.63763  0.38763  0.25000
E253  E   0.63763  0.50000  0.36237
E254  E   0.63763  0.75000  0.88763
E255  E   0.63763  0.86237  0.00000
E256  E   0.63763  0.88763  0.75000
E257  E   0.63763  0.00000  0.86237
E258  E   0.63763  0.25000  0.38763
E259  E   0.63763  0.36237  0.50000
E260  E   0.63763  0.38763  0.25000
E261  E   0.63763  0.50000  0.36237
E262  E   0.63763  0.75000  0.88763
E263  E   0.63763  0.86237  0.00000
E264  E   0.63763  0.88763  0.75000
E265  E   0.66856  0.37500  0.87500
E266  E   0.66856  0.87500  0.37500
E267  E   0.69381  0.26263  0.26263
E268  E   0.69381  0.48737  0.48737
E269  E   0.69381  0.76263  0.76263
E270  E   0.69381  0.98737  0.98737
E271  E   0.73737  0.01263  0.44381
E272  E   0.73737  0.01263  0.44381
E273  E   0.73737  0.23737  0.80619
E274  E   0.73737  0.23737  0.80619
E275  E   0.73737  0.30619  0.73737
E276  E   0.73737  0.44381  0.01263
E277  E   0.73737  0.44381  0.01263
E278  E   0.73737  0.51263  0.94381
E279  E   0.73737  0.73737  0.30619
E280  E   0.73737  0.80619  0.23737
E281  E   0.73737  0.80619  0.23737
E282  E   0.73737  0.94381  0.51263
E283  E   0.75000  0.11237  0.86237
E284  E   0.75000  0.11237  0.86237
E285  E   0.75000  0.13763  0.38763
E286  E   0.75000  0.13763  0.38763
E287  E   0.75000  0.36237  0.61237
E288  E   0.75000  0.36237  0.61237
E289  E   0.75000  0.38763  0.13763
E290  E   0.75000  0.38763  0.13763
E291  E   0.75000  0.61237  0.36237
E292  E   0.75000  0.61237  0.36237
E293  E   0.75000  0.63763  0.88763
E294  E   0.75000  0.63763  0.88763
E295  E   0.75000  0.86237  0.11237
E296  E   0.75000  0.86237  0.11237
E297  E   0.75000  0.88763  0.63763
E298  E   0.75000  0.88763  0.63763
E299  E   0.76263  0.05619  0.98737
E300  E   0.76263  0.19381  0.26263
E301  E   0.76263  0.26263  0.19381
E302  E   0.76263  0.48737  0.55619
E303  E   0.76263  0.55619  0.48737
E304  E   0.76263  0.69381  0.76263
E305  E   0.76263  0.76263  0.69381
E306  E   0.76263  0.98737  0.05619
E307  E   0.80619  0.01263  0.51263
E308  E   0.80619  0.01263  0.51263
E309  E   0.80619  0.23737  0.73737
E310  E   0.80619  0.23737  0.73737
E311  E   0.80619  0.51263  0.01263
E312  E   0.80619  0.51263  0.01263
E313  E   0.80619  0.73737  0.23737
E314  E   0.80619  0.73737  0.23737
E315  E   0.83144  0.12500  0.12500
E316  E   0.83144  0.62500  0.62500
E317  E   0.86237  0.00000  0.63763
E318  E   0.86237  0.11237  0.75000
E319  E   0.86237  0.13763  0.50000
E320  E   0.86237  0.25000  0.61237
E321  E   0.86237  0.50000  0.13763
E322  E   0.86237  0.61237  0.25000
E323  E   0.86237  0.63763  0.00000
E324  E   0.86237  0.75000  0.11237
E325  E   0.86237  0.00000  0.63763
E326  E   0.86237  0.11237  0.75000
E327  E   0.86237  0.13763  0.50000
E328  E   0.86237  0.25000  0.61237
E329  E   0.86237  0.50000  0.13763
E330  E   0.86237  0.61237  0.25000
E331  E   0.86237  0.63763  0.00000
E332  E   0.86237  0.75000  0.11237
E333  E   0.87500  0.08144  0.37500
E334  E   0.87500  0.16856  0.87500
E335  E   0.87500  0.37500  0.08144
E336  E   0.87500  0.37500  0.66856
E337  E   0.87500  0.58144  0.87500
E338  E   0.87500  0.66856  0.37500
E339  E   0.87500  0.87500  0.16856
E340  E   0.87500  0.87500  0.58144
E341  E   0.88763  0.00000  0.11237
E342  E   0.88763  0.11237  0.00000
E343  E   0.88763  0.13763  0.25000
E344  E   0.88763  0.25000  0.13763
E345  E   0.88763  0.50000  0.61237
E346  E   0.88763  0.61237  0.50000
E347  E   0.88763  0.63763  0.75000
E348  E   0.88763  0.75000  0.63763
E349  E   0.88763  0.00000  0.11237
E350  E   0.88763  0.11237  0.00000
E351  E   0.88763  0.13763  0.25000
E352  E   0.88763  0.25000  0.13763
E353  E   0.88763  0.50000  0.61237
E354  E   0.88763  0.61237  0.50000
E355  E   0.88763  0.63763  0.75000
E356  E   0.88763  0.75000  0.63763
E357  E   0.91856  0.12500  0.62500
E358  E   0.91856  0.62500  0.12500
E359  E   0.94381  0.01263  0.23737
E360  E   0.94381  0.01263  0.23737
E361  E   0.94381  0.23737  0.01263
E362  E   0.94381  0.23737  0.01263
E363  E   0.94381  0.51263  0.73737
E364  E   0.94381  0.73737  0.51263
E365  E   0.98737  0.05619  0.76263
E366  E   0.98737  0.19381  0.48737
E367  E   0.98737  0.26263  0.55619
E368  E   0.98737  0.48737  0.19381
E369  E   0.98737  0.55619  0.26263
E370  E   0.98737  0.69381  0.98737
E371  E   0.98737  0.76263  0.05619
E372  E   0.98737  0.98737  0.69381
loop_
