data_fnk_I4/mcm  hall_number: 425, V_con: 5
_audit_creation_date              2025-03-06
_audit_creation_method            'MOFbuilder_1.0'
_symmetry_space_group_name_H-M    'P1'
_symmetry_Int_Tables_number       1
_symmetry_cell_setting            triclinic
loop_
_symmetry_equiv_pos_as_xyz
  x,y,z
_cell_length_a                    24.1424
_cell_length_b                    24.1424
_cell_length_c                    34.142
_cell_angle_alpha                 90.0
_cell_angle_beta                  90.0
_cell_angle_gamma                 90.0
loop_
_atom_site_label
_atom_site_type_symbol
_atom_site_fract_x
_atom_site_fract_y
_atom_site_fract_z
V1    V   0.14645  0.35355  0.14645
V2    V   0.14645  0.35355  0.85355
V3    V   0.14645  0.64645  0.35355
V4    V   0.14645  0.64645  0.64645
V5    V   0.14645  0.35355  0.14645
V6    V   0.14645  0.35355  0.85355
V7    V   0.14645  0.64645  0.35355
V8    V   0.14645  0.64645  0.64645
V9    V   0.35355  0.14645  0.35355
V10   V   0.35355  0.14645  0.64645
V11   V   0.35355  0.85355  0.14645
V12   V   0.35355  0.85355  0.85355
V13   V   0.35355  0.14645  0.35355
V14   V   0.35355  0.14645  0.64645
V15   V   0.35355  0.85355  0.14645
V16   V   0.35355  0.85355  0.85355
V17   V   0.64645  0.14645  0.14645
V18   V   0.64645  0.14645  0.85355
V19   V   0.64645  0.14645  0.14645
V20   V   0.64645  0.14645  0.85355
V21   V   0.64645  0.85355  0.35355
V22   V   0.64645  0.85355  0.64645
V23   V   0.85355  0.35355  0.35355
V24   V   0.85355  0.35355  0.64645
V25   V   0.85355  0.35355  0.35355
V26   V   0.85355  0.35355  0.64645
V27   V   0.85355  0.64645  0.14645
V28   V   0.85355  0.64645  0.85355
E1    E   0.00000  0.35355  0.25000
E2    E   0.00000  0.35355  0.75000
E3    E   0.00000  0.50000  0.14645
E4    E   0.00000  0.50000  0.35355
E5    E   0.00000  0.50000  0.64645
E6    E   0.00000  0.50000  0.85355
E7    E   0.00000  0.64645  0.25000
E8    E   0.00000  0.64645  0.75000
E9    E   0.14645  0.35355  0.00000
E10   E   0.14645  0.50000  0.25000
E11   E   0.14645  0.50000  0.75000
E12   E   0.14645  0.64645  0.50000
E13   E   0.14645  0.35355  0.00000
E14   E   0.14645  0.64645  0.50000
E15   E   0.25000  0.25000  0.25000
E16   E   0.25000  0.25000  0.75000
E17   E   0.25000  0.75000  0.25000
E18   E   0.25000  0.75000  0.75000
E19   E   0.35355  0.14645  0.50000
E20   E   0.35355  0.85355  0.00000
E21   E   0.35355  0.00000  0.25000
E22   E   0.35355  0.00000  0.75000
E23   E   0.35355  0.14645  0.50000
E24   E   0.35355  0.85355  0.00000
E25   E   0.50000  0.00000  0.14645
E26   E   0.50000  0.00000  0.35355
E27   E   0.50000  0.00000  0.64645
E28   E   0.50000  0.00000  0.85355
E29   E   0.50000  0.14645  0.25000
E30   E   0.50000  0.14645  0.75000
E31   E   0.50000  0.85355  0.25000
E32   E   0.50000  0.85355  0.75000
E33   E   0.64645  0.00000  0.25000
E34   E   0.64645  0.00000  0.75000
E35   E   0.64645  0.14645  0.00000
E36   E   0.64645  0.14645  0.00000
E37   E   0.64645  0.85355  0.50000
E38   E   0.75000  0.25000  0.25000
E39   E   0.75000  0.25000  0.75000
E40   E   0.75000  0.75000  0.25000
E41   E   0.75000  0.75000  0.75000
E42   E   0.85355  0.35355  0.50000
E43   E   0.85355  0.35355  0.50000
E44   E   0.85355  0.50000  0.25000
E45   E   0.85355  0.50000  0.75000
E46   E   0.85355  0.64645  0.00000
loop_
