data_fno_Ia-3d  hall_number: 530, V_con: 5
_audit_creation_date              2025-03-06
_audit_creation_method            'MOFbuilder_1.0'
_symmetry_space_group_name_H-M    'P1'
_symmetry_Int_Tables_number       1
_symmetry_cell_setting            triclinic
loop_
_symmetry_equiv_pos_as_xyz
  x,y,z
_cell_length_a                    35.5405
_cell_length_b                    35.5405
_cell_length_c                    35.5405
_cell_angle_alpha                 90.0
_cell_angle_beta                  90.0
_cell_angle_gamma                 90.0
loop_
_atom_site_label
_atom_site_type_symbol
_atom_site_fract_x
_atom_site_fract_y
_atom_site_fract_z
V1    V   0.09948  0.15052  0.62500
V2    V   0.09948  0.34948  0.12500
V3    V   0.09948  0.65052  0.37500
V4    V   0.09948  0.84948  0.87500
V5    V   0.09948  0.15052  0.62500
V6    V   0.09948  0.34948  0.12500
V7    V   0.09948  0.65052  0.37500
V8    V   0.09948  0.84948  0.87500
V9    V   0.12500  0.09948  0.34948
V10   V   0.12500  0.09948  0.34948
V11   V   0.12500  0.40052  0.84948
V12   V   0.12500  0.59948  0.65052
V13   V   0.12500  0.90052  0.15052
V14   V   0.15052  0.12500  0.90052
V15   V   0.15052  0.37500  0.40052
V16   V   0.15052  0.62500  0.09948
V17   V   0.15052  0.62500  0.09948
V18   V   0.15052  0.87500  0.59948
V19   V   0.34948  0.12500  0.09948
V20   V   0.34948  0.12500  0.09948
V21   V   0.34948  0.37500  0.59948
V22   V   0.34948  0.62500  0.90052
V23   V   0.34948  0.87500  0.40052
V24   V   0.37500  0.09948  0.65052
V25   V   0.37500  0.09948  0.65052
V26   V   0.37500  0.40052  0.15052
V27   V   0.37500  0.59948  0.34948
V28   V   0.37500  0.90052  0.84948
V29   V   0.40052  0.15052  0.37500
V30   V   0.40052  0.34948  0.87500
V31   V   0.40052  0.65052  0.62500
V32   V   0.40052  0.84948  0.12500
V33   V   0.59948  0.15052  0.87500
V34   V   0.59948  0.34948  0.37500
V35   V   0.59948  0.65052  0.12500
V36   V   0.59948  0.84948  0.62500
V37   V   0.62500  0.09948  0.15052
V38   V   0.62500  0.09948  0.15052
V39   V   0.62500  0.40052  0.65052
V40   V   0.62500  0.59948  0.84948
V41   V   0.62500  0.90052  0.34948
V42   V   0.65052  0.12500  0.59948
V43   V   0.65052  0.37500  0.09948
V44   V   0.65052  0.37500  0.09948
V45   V   0.65052  0.62500  0.40052
V46   V   0.65052  0.87500  0.90052
V47   V   0.84948  0.12500  0.40052
V48   V   0.84948  0.37500  0.90052
V49   V   0.84948  0.62500  0.59948
V50   V   0.84948  0.87500  0.09948
V51   V   0.84948  0.87500  0.09948
V52   V   0.87500  0.09948  0.84948
V53   V   0.87500  0.09948  0.84948
V54   V   0.87500  0.40052  0.34948
V55   V   0.87500  0.59948  0.15052
V56   V   0.87500  0.90052  0.65052
V57   V   0.90052  0.15052  0.12500
V58   V   0.90052  0.34948  0.62500
V59   V   0.90052  0.65052  0.87500
V60   V   0.90052  0.84948  0.37500
E1    E   0.00000  0.25000  0.12500
E2    E   0.00000  0.25000  0.62500
E3    E   0.00000  0.75000  0.37500
E4    E   0.00000  0.75000  0.87500
E5    E   0.01276  0.11224  0.87500
E6    E   0.01276  0.38776  0.37500
E7    E   0.01276  0.61224  0.12500
E8    E   0.01276  0.88776  0.62500
E9    E   0.11224  0.12500  0.48724
E10   E   0.11224  0.37500  0.98724
E11   E   0.11224  0.62500  0.51276
E12   E   0.11224  0.87500  0.01276
E13   E   0.12500  0.00000  0.25000
E14   E   0.12500  0.01276  0.61224
E15   E   0.12500  0.13776  0.76276
E16   E   0.12500  0.36224  0.26276
E17   E   0.12500  0.48724  0.11224
E18   E   0.12500  0.50000  0.75000
E19   E   0.12500  0.51276  0.38776
E20   E   0.12500  0.63776  0.23724
E21   E   0.12500  0.86224  0.73724
E22   E   0.12500  0.98724  0.88776
E23   E   0.13776  0.23724  0.37500
E24   E   0.13776  0.26276  0.87500
E25   E   0.13776  0.73724  0.62500
E26   E   0.13776  0.76276  0.12500
E27   E   0.23724  0.12500  0.63776
E28   E   0.23724  0.37500  0.13776
E29   E   0.23724  0.62500  0.36224
E30   E   0.23724  0.87500  0.86224
E31   E   0.25000  0.12500  0.00000
E32   E   0.25000  0.37500  0.50000
E33   E   0.25000  0.62500  0.00000
E34   E   0.25000  0.87500  0.50000
E35   E   0.26276  0.12500  0.36224
E36   E   0.26276  0.37500  0.86224
E37   E   0.26276  0.62500  0.63776
E38   E   0.26276  0.87500  0.13776
E39   E   0.36224  0.23724  0.62500
E40   E   0.36224  0.26276  0.12500
E41   E   0.36224  0.73724  0.37500
E42   E   0.36224  0.76276  0.87500
E43   E   0.37500  0.00000  0.75000
E44   E   0.37500  0.01276  0.38776
E45   E   0.37500  0.13776  0.23724
E46   E   0.37500  0.36224  0.73724
E47   E   0.37500  0.48724  0.88776
E48   E   0.37500  0.50000  0.25000
E49   E   0.37500  0.51276  0.61224
E50   E   0.37500  0.63776  0.76276
E51   E   0.37500  0.86224  0.26276
E52   E   0.37500  0.98724  0.11224
E53   E   0.38776  0.12500  0.51276
E54   E   0.38776  0.37500  0.01276
E55   E   0.38776  0.62500  0.48724
E56   E   0.38776  0.87500  0.98724
E57   E   0.48724  0.11224  0.12500
E58   E   0.48724  0.38776  0.62500
E59   E   0.48724  0.61224  0.87500
E60   E   0.48724  0.88776  0.37500
E61   E   0.50000  0.25000  0.37500
E62   E   0.50000  0.25000  0.87500
E63   E   0.50000  0.75000  0.12500
E64   E   0.50000  0.75000  0.62500
E65   E   0.51276  0.11224  0.62500
E66   E   0.51276  0.38776  0.12500
E67   E   0.51276  0.61224  0.37500
E68   E   0.51276  0.88776  0.87500
E69   E   0.61224  0.12500  0.01276
E70   E   0.61224  0.37500  0.51276
E71   E   0.61224  0.62500  0.98724
E72   E   0.61224  0.87500  0.48724
E73   E   0.62500  0.00000  0.25000
E74   E   0.62500  0.01276  0.88776
E75   E   0.62500  0.13776  0.73724
E76   E   0.62500  0.36224  0.23724
E77   E   0.62500  0.48724  0.38776
E78   E   0.62500  0.50000  0.75000
E79   E   0.62500  0.51276  0.11224
E80   E   0.62500  0.63776  0.26276
E81   E   0.62500  0.86224  0.76276
E82   E   0.62500  0.98724  0.61224
E83   E   0.63776  0.23724  0.12500
E84   E   0.63776  0.26276  0.62500
E85   E   0.63776  0.73724  0.87500
E86   E   0.63776  0.76276  0.37500
E87   E   0.73724  0.12500  0.86224
E88   E   0.73724  0.37500  0.36224
E89   E   0.73724  0.62500  0.13776
E90   E   0.73724  0.87500  0.63776
E91   E   0.75000  0.12500  0.50000
E92   E   0.75000  0.37500  0.00000
E93   E   0.75000  0.62500  0.50000
E94   E   0.75000  0.87500  0.00000
E95   E   0.76276  0.12500  0.13776
E96   E   0.76276  0.37500  0.63776
E97   E   0.76276  0.62500  0.86224
E98   E   0.76276  0.87500  0.36224
E99   E   0.86224  0.23724  0.87500
E100  E   0.86224  0.26276  0.37500
E101  E   0.86224  0.73724  0.12500
E102  E   0.86224  0.76276  0.62500
E103  E   0.87500  0.00000  0.75000
E104  E   0.87500  0.01276  0.11224
E105  E   0.87500  0.13776  0.26276
E106  E   0.87500  0.36224  0.76276
E107  E   0.87500  0.48724  0.61224
E108  E   0.87500  0.50000  0.25000
E109  E   0.87500  0.51276  0.88776
E110  E   0.87500  0.63776  0.73724
E111  E   0.87500  0.86224  0.23724
E112  E   0.87500  0.98724  0.38776
E113  E   0.88776  0.12500  0.98724
E114  E   0.88776  0.37500  0.48724
E115  E   0.88776  0.62500  0.01276
E116  E   0.88776  0.87500  0.51276
E117  E   0.98724  0.11224  0.37500
E118  E   0.98724  0.38776  0.87500
E119  E   0.98724  0.61224  0.62500
E120  E   0.98724  0.88776  0.12500
loop_
