data_ftl_P-43m  hall_number: 511, V_con: 4, EC_con: 4
_audit_creation_date              2025-03-06
_audit_creation_method            'MOFbuilder_1.0'
_symmetry_space_group_name_H-M    'P1'
_symmetry_Int_Tables_number       1
_symmetry_cell_setting            triclinic
loop_
_symmetry_equiv_pos_as_xyz
  x,y,z
_cell_length_a                    48.2843
_cell_length_b                    48.2843
_cell_length_c                    48.2843
_cell_angle_alpha                 90.0
_cell_angle_beta                  90.0
_cell_angle_gamma                 90.0
loop_
_atom_site_label
_atom_site_type_symbol
_atom_site_fract_x
_atom_site_fract_y
_atom_site_fract_z
V1    V   0.28033  0.42678  0.57322
V2    V   0.28033  0.42678  0.57322
V3    V   0.28033  0.57322  0.42678
V4    V   0.28033  0.57322  0.42678
V5    V   0.42678  0.28033  0.57322
V6    V   0.42678  0.42678  0.71967
V7    V   0.42678  0.57322  0.28033
V8    V   0.42678  0.71967  0.42678
V9    V   0.42678  0.28033  0.57322
V10   V   0.42678  0.42678  0.71967
V11   V   0.42678  0.57322  0.28033
V12   V   0.42678  0.71967  0.42678
V13   V   0.57322  0.28033  0.42678
V14   V   0.57322  0.42678  0.28033
V15   V   0.57322  0.57322  0.71967
V16   V   0.57322  0.71967  0.57322
V17   V   0.57322  0.28033  0.42678
V18   V   0.57322  0.42678  0.28033
V19   V   0.57322  0.57322  0.71967
V20   V   0.57322  0.71967  0.57322
V21   V   0.71967  0.42678  0.42678
V22   V   0.71967  0.42678  0.42678
V23   V   0.71967  0.57322  0.57322
V24   V   0.71967  0.57322  0.57322
EC1    EC   0.07322  0.42678  0.57322
EC2    EC   0.07322  0.42678  0.57322
EC3    EC   0.07322  0.57322  0.42678
EC4    EC   0.07322  0.57322  0.42678
EC5    EC   0.42678  0.07322  0.57322
EC6    EC   0.42678  0.42678  0.92678
EC7    EC   0.42678  0.57322  0.07322
EC8    EC   0.42678  0.92678  0.42678
EC9    EC   0.42678  0.07322  0.57322
EC10   EC   0.42678  0.42678  0.92678
EC11   EC   0.42678  0.57322  0.07322
EC12   EC   0.42678  0.92678  0.42678
EC13   EC   0.57322  0.07322  0.42678
EC14   EC   0.57322  0.42678  0.07322
EC15   EC   0.57322  0.57322  0.92678
EC16   EC   0.57322  0.92678  0.57322
EC17   EC   0.57322  0.07322  0.42678
EC18   EC   0.57322  0.42678  0.07322
EC19   EC   0.57322  0.57322  0.92678
EC20   EC   0.57322  0.92678  0.57322
EC21   EC   0.92678  0.42678  0.42678
EC22   EC   0.92678  0.42678  0.42678
EC23   EC   0.92678  0.57322  0.57322
EC24   EC   0.92678  0.57322  0.57322
E1    E   0.00000  0.42678  0.50000
E2    E   0.00000  0.50000  0.42678
E3    E   0.00000  0.50000  0.57322
E4    E   0.00000  0.57322  0.50000
E5    E   0.07322  0.50000  0.50000
E6    E   0.17678  0.42678  0.57322
E7    E   0.17678  0.42678  0.57322
E8    E   0.17678  0.57322  0.42678
E9    E   0.17678  0.57322  0.42678
E10   E   0.28033  0.50000  0.50000
E11   E   0.35355  0.35355  0.57322
E12   E   0.35355  0.42678  0.64645
E13   E   0.35355  0.57322  0.35355
E14   E   0.35355  0.64645  0.42678
E15   E   0.42678  0.00000  0.50000
E16   E   0.42678  0.17678  0.57322
E17   E   0.42678  0.42678  0.82322
E18   E   0.42678  0.50000  0.00000
E19   E   0.42678  0.57322  0.17678
E20   E   0.42678  0.82322  0.42678
E21   E   0.42678  0.17678  0.57322
E22   E   0.42678  0.35355  0.64645
E23   E   0.42678  0.42678  0.82322
E24   E   0.42678  0.57322  0.17678
E25   E   0.42678  0.64645  0.35355
E26   E   0.42678  0.82322  0.42678
E27   E   0.50000  0.00000  0.42678
E28   E   0.50000  0.00000  0.57322
E29   E   0.50000  0.07322  0.50000
E30   E   0.50000  0.28033  0.50000
E31   E   0.50000  0.42678  0.00000
E32   E   0.50000  0.50000  0.07322
E33   E   0.50000  0.50000  0.28033
E34   E   0.50000  0.50000  0.71967
E35   E   0.50000  0.50000  0.92678
E36   E   0.50000  0.57322  0.00000
E37   E   0.50000  0.71967  0.50000
E38   E   0.50000  0.92678  0.50000
E39   E   0.57322  0.17678  0.42678
E40   E   0.57322  0.35355  0.35355
E41   E   0.57322  0.42678  0.17678
E42   E   0.57322  0.57322  0.82322
E43   E   0.57322  0.64645  0.64645
E44   E   0.57322  0.82322  0.57322
E45   E   0.57322  0.00000  0.50000
E46   E   0.57322  0.17678  0.42678
E47   E   0.57322  0.42678  0.17678
E48   E   0.57322  0.50000  0.00000
E49   E   0.57322  0.57322  0.82322
E50   E   0.57322  0.82322  0.57322
E51   E   0.64645  0.35355  0.42678
E52   E   0.64645  0.42678  0.35355
E53   E   0.64645  0.57322  0.64645
E54   E   0.64645  0.64645  0.57322
E55   E   0.71967  0.50000  0.50000
E56   E   0.82322  0.42678  0.42678
E57   E   0.82322  0.42678  0.42678
E58   E   0.82322  0.57322  0.57322
E59   E   0.82322  0.57322  0.57322
E60   E   0.92678  0.50000  0.50000
loop_
