data_ftw-a_Pm-3m  hall_number: 517, V_con: 5, EC_con: 3
_audit_creation_date              2025-03-06
_audit_creation_method            'MOFbuilder_1.0'
_symmetry_space_group_name_H-M    'P1'
_symmetry_Int_Tables_number       1
_symmetry_cell_setting            triclinic
loop_
_symmetry_equiv_pos_as_xyz
  x,y,z
_cell_length_a                    38.2843
_cell_length_b                    38.2843
_cell_length_c                    38.2843
_cell_angle_alpha                 90.0
_cell_angle_beta                  90.0
_cell_angle_gamma                 90.0
loop_
_atom_site_label
_atom_site_type_symbol
_atom_site_fract_x
_atom_site_fract_y
_atom_site_fract_z
V1    V   0.00000  0.18470  0.18470
V2    V   0.00000  0.18470  0.81530
V3    V   0.00000  0.81530  0.18470
V4    V   0.00000  0.81530  0.81530
V5    V   0.18470  0.00000  0.18470
V6    V   0.18470  0.00000  0.81530
V7    V   0.18470  0.18470  0.00000
V8    V   0.18470  0.81530  0.00000
V9    V   0.81530  0.00000  0.18470
V10   V   0.81530  0.00000  0.81530
V11   V   0.81530  0.18470  0.00000
V12   V   0.81530  0.81530  0.00000
EC1    EC   0.00000  0.36940  0.36940
EC2    EC   0.00000  0.36940  0.63060
EC3    EC   0.00000  0.63060  0.36940
EC4    EC   0.00000  0.63060  0.63060
EC5    EC   0.36940  0.00000  0.36940
EC6    EC   0.36940  0.00000  0.63060
EC7    EC   0.36940  0.36940  0.00000
EC8    EC   0.36940  0.63060  0.00000
EC9    EC   0.63060  0.00000  0.36940
EC10   EC   0.63060  0.00000  0.63060
EC11   EC   0.63060  0.36940  0.00000
EC12   EC   0.63060  0.63060  0.00000
E1    E   0.00000  0.27705  0.27705
E2    E   0.00000  0.27705  0.72295
E3    E   0.00000  0.36940  0.50000
E4    E   0.00000  0.50000  0.36940
E5    E   0.00000  0.50000  0.63060
E6    E   0.00000  0.63060  0.50000
E7    E   0.00000  0.72295  0.27705
E8    E   0.00000  0.72295  0.72295
E9    E   0.09235  0.09235  0.18470
E10   E   0.09235  0.09235  0.81530
E11   E   0.09235  0.18470  0.09235
E12   E   0.09235  0.18470  0.90765
E13   E   0.09235  0.81530  0.09235
E14   E   0.09235  0.81530  0.90765
E15   E   0.09235  0.90765  0.18470
E16   E   0.09235  0.90765  0.81530
E17   E   0.18470  0.09235  0.09235
E18   E   0.18470  0.09235  0.90765
E19   E   0.18470  0.90765  0.09235
E20   E   0.18470  0.90765  0.90765
E21   E   0.27705  0.00000  0.27705
E22   E   0.27705  0.00000  0.72295
E23   E   0.27705  0.27705  0.00000
E24   E   0.27705  0.72295  0.00000
E25   E   0.36940  0.00000  0.50000
E26   E   0.36940  0.50000  0.00000
E27   E   0.50000  0.00000  0.36940
E28   E   0.50000  0.00000  0.63060
E29   E   0.50000  0.36940  0.00000
E30   E   0.50000  0.63060  0.00000
E31   E   0.63060  0.00000  0.50000
E32   E   0.63060  0.50000  0.00000
E33   E   0.72295  0.00000  0.27705
E34   E   0.72295  0.00000  0.72295
E35   E   0.72295  0.27705  0.00000
E36   E   0.72295  0.72295  0.00000
E37   E   0.81530  0.09235  0.09235
E38   E   0.81530  0.09235  0.90765
E39   E   0.81530  0.90765  0.09235
E40   E   0.81530  0.90765  0.90765
E41   E   0.90765  0.09235  0.18470
E42   E   0.90765  0.09235  0.81530
E43   E   0.90765  0.18470  0.09235
E44   E   0.90765  0.18470  0.90765
E45   E   0.90765  0.81530  0.09235
E46   E   0.90765  0.81530  0.90765
E47   E   0.90765  0.90765  0.18470
E48   E   0.90765  0.90765  0.81530
loop_
