data_fue_Pm-3m  hall_number: 517, V_con: 4, EC_con: 4
_audit_creation_date              2025-03-06
_audit_creation_method            'MOFbuilder_1.0'
_symmetry_space_group_name_H-M    'P1'
_symmetry_Int_Tables_number       1
_symmetry_cell_setting            triclinic
loop_
_symmetry_equiv_pos_as_xyz
  x,y,z
_cell_length_a                    58.2843
_cell_length_b                    58.2843
_cell_length_c                    58.2843
_cell_angle_alpha                 90.0
_cell_angle_beta                  90.0
_cell_angle_gamma                 90.0
loop_
_atom_site_label
_atom_site_type_symbol
_atom_site_fract_x
_atom_site_fract_y
_atom_site_fract_z
V1    V   0.00000  0.29289  0.41421
V2    V   0.00000  0.29289  0.58579
V3    V   0.00000  0.41421  0.29289
V4    V   0.00000  0.41421  0.70711
V5    V   0.00000  0.58579  0.29289
V6    V   0.00000  0.58579  0.70711
V7    V   0.00000  0.70711  0.41421
V8    V   0.00000  0.70711  0.58579
V9    V   0.29289  0.00000  0.41421
V10   V   0.29289  0.00000  0.58579
V11   V   0.29289  0.41421  0.00000
V12   V   0.29289  0.58579  0.00000
V13   V   0.41421  0.00000  0.29289
V14   V   0.41421  0.00000  0.70711
V15   V   0.41421  0.29289  0.00000
V16   V   0.41421  0.70711  0.00000
V17   V   0.58579  0.00000  0.29289
V18   V   0.58579  0.00000  0.70711
V19   V   0.58579  0.29289  0.00000
V20   V   0.58579  0.70711  0.00000
V21   V   0.70711  0.00000  0.41421
V22   V   0.70711  0.00000  0.58579
V23   V   0.70711  0.41421  0.00000
V24   V   0.70711  0.58579  0.00000
EC1    EC   0.17157  0.29289  0.41421
EC2    EC   0.17157  0.29289  0.58579
EC3    EC   0.17157  0.41421  0.29289
EC4    EC   0.17157  0.41421  0.70711
EC5    EC   0.17157  0.58579  0.29289
EC6    EC   0.17157  0.58579  0.70711
EC7    EC   0.17157  0.70711  0.41421
EC8    EC   0.17157  0.70711  0.58579
EC9    EC   0.29289  0.17157  0.41421
EC10   EC   0.29289  0.17157  0.58579
EC11   EC   0.29289  0.41421  0.17157
EC12   EC   0.29289  0.41421  0.82843
EC13   EC   0.29289  0.58579  0.17157
EC14   EC   0.29289  0.58579  0.82843
EC15   EC   0.29289  0.82843  0.41421
EC16   EC   0.29289  0.82843  0.58579
EC17   EC   0.41421  0.17157  0.29289
EC18   EC   0.41421  0.17157  0.70711
EC19   EC   0.41421  0.29289  0.17157
EC20   EC   0.41421  0.29289  0.82843
EC21   EC   0.41421  0.70711  0.17157
EC22   EC   0.41421  0.70711  0.82843
EC23   EC   0.41421  0.82843  0.29289
EC24   EC   0.41421  0.82843  0.70711
EC25   EC   0.58579  0.17157  0.29289
EC26   EC   0.58579  0.17157  0.70711
EC27   EC   0.58579  0.29289  0.17157
EC28   EC   0.58579  0.29289  0.82843
EC29   EC   0.58579  0.70711  0.17157
EC30   EC   0.58579  0.70711  0.82843
EC31   EC   0.58579  0.82843  0.29289
EC32   EC   0.58579  0.82843  0.70711
EC33   EC   0.70711  0.17157  0.41421
EC34   EC   0.70711  0.17157  0.58579
EC35   EC   0.70711  0.41421  0.17157
EC36   EC   0.70711  0.41421  0.82843
EC37   EC   0.70711  0.58579  0.17157
EC38   EC   0.70711  0.58579  0.82843
EC39   EC   0.70711  0.82843  0.41421
EC40   EC   0.70711  0.82843  0.58579
EC41   EC   0.82843  0.29289  0.41421
EC42   EC   0.82843  0.29289  0.58579
EC43   EC   0.82843  0.41421  0.29289
EC44   EC   0.82843  0.41421  0.70711
EC45   EC   0.82843  0.58579  0.29289
EC46   EC   0.82843  0.58579  0.70711
EC47   EC   0.82843  0.70711  0.41421
EC48   EC   0.82843  0.70711  0.58579
E1    E   0.00000  0.29289  0.50000
E2    E   0.00000  0.35355  0.35355
E3    E   0.00000  0.35355  0.64645
E4    E   0.00000  0.50000  0.29289
E5    E   0.00000  0.50000  0.70711
E6    E   0.00000  0.64645  0.35355
E7    E   0.00000  0.64645  0.64645
E8    E   0.00000  0.70711  0.50000
E9    E   0.08579  0.29289  0.41421
E10   E   0.08579  0.29289  0.58579
E11   E   0.08579  0.41421  0.29289
E12   E   0.08579  0.41421  0.70711
E13   E   0.08579  0.58579  0.29289
E14   E   0.08579  0.58579  0.70711
E15   E   0.08579  0.70711  0.41421
E16   E   0.08579  0.70711  0.58579
E17   E   0.17157  0.29289  0.50000
E18   E   0.17157  0.35355  0.35355
E19   E   0.17157  0.35355  0.64645
E20   E   0.17157  0.50000  0.29289
E21   E   0.17157  0.50000  0.70711
E22   E   0.17157  0.64645  0.35355
E23   E   0.17157  0.64645  0.64645
E24   E   0.17157  0.70711  0.50000
E25   E   0.23223  0.23223  0.41421
E26   E   0.23223  0.23223  0.58579
E27   E   0.23223  0.41421  0.23223
E28   E   0.23223  0.41421  0.76777
E29   E   0.23223  0.58579  0.23223
E30   E   0.23223  0.58579  0.76777
E31   E   0.23223  0.76777  0.41421
E32   E   0.23223  0.76777  0.58579
E33   E   0.29289  0.00000  0.50000
E34   E   0.29289  0.08579  0.41421
E35   E   0.29289  0.08579  0.58579
E36   E   0.29289  0.17157  0.50000
E37   E   0.29289  0.41421  0.08579
E38   E   0.29289  0.41421  0.91421
E39   E   0.29289  0.50000  0.00000
E40   E   0.29289  0.50000  0.17157
E41   E   0.29289  0.50000  0.82843
E42   E   0.29289  0.58579  0.08579
E43   E   0.29289  0.58579  0.91421
E44   E   0.29289  0.82843  0.50000
E45   E   0.29289  0.91421  0.41421
E46   E   0.29289  0.91421  0.58579
E47   E   0.35355  0.00000  0.35355
E48   E   0.35355  0.00000  0.64645
E49   E   0.35355  0.17157  0.35355
E50   E   0.35355  0.17157  0.64645
E51   E   0.35355  0.35355  0.00000
E52   E   0.35355  0.35355  0.17157
E53   E   0.35355  0.35355  0.82843
E54   E   0.35355  0.64645  0.00000
E55   E   0.35355  0.64645  0.17157
E56   E   0.35355  0.64645  0.82843
E57   E   0.35355  0.82843  0.35355
E58   E   0.35355  0.82843  0.64645
E59   E   0.41421  0.08579  0.29289
E60   E   0.41421  0.08579  0.70711
E61   E   0.41421  0.23223  0.23223
E62   E   0.41421  0.23223  0.76777
E63   E   0.41421  0.29289  0.08579
E64   E   0.41421  0.29289  0.91421
E65   E   0.41421  0.70711  0.08579
E66   E   0.41421  0.70711  0.91421
E67   E   0.41421  0.76777  0.23223
E68   E   0.41421  0.76777  0.76777
E69   E   0.41421  0.91421  0.29289
E70   E   0.41421  0.91421  0.70711
E71   E   0.50000  0.00000  0.29289
E72   E   0.50000  0.00000  0.70711
E73   E   0.50000  0.17157  0.29289
E74   E   0.50000  0.17157  0.70711
E75   E   0.50000  0.29289  0.00000
E76   E   0.50000  0.29289  0.17157
E77   E   0.50000  0.29289  0.82843
E78   E   0.50000  0.70711  0.00000
E79   E   0.50000  0.70711  0.17157
E80   E   0.50000  0.70711  0.82843
E81   E   0.50000  0.82843  0.29289
E82   E   0.50000  0.82843  0.70711
E83   E   0.58579  0.08579  0.29289
E84   E   0.58579  0.08579  0.70711
E85   E   0.58579  0.23223  0.23223
E86   E   0.58579  0.23223  0.76777
E87   E   0.58579  0.29289  0.08579
E88   E   0.58579  0.29289  0.91421
E89   E   0.58579  0.70711  0.08579
E90   E   0.58579  0.70711  0.91421
E91   E   0.58579  0.76777  0.23223
E92   E   0.58579  0.76777  0.76777
E93   E   0.58579  0.91421  0.29289
E94   E   0.58579  0.91421  0.70711
E95   E   0.64645  0.00000  0.35355
E96   E   0.64645  0.00000  0.64645
E97   E   0.64645  0.17157  0.35355
E98   E   0.64645  0.17157  0.64645
E99   E   0.64645  0.35355  0.00000
E100  E   0.64645  0.35355  0.17157
E101  E   0.64645  0.35355  0.82843
E102  E   0.64645  0.64645  0.00000
E103  E   0.64645  0.64645  0.17157
E104  E   0.64645  0.64645  0.82843
E105  E   0.64645  0.82843  0.35355
E106  E   0.64645  0.82843  0.64645
E107  E   0.70711  0.00000  0.50000
E108  E   0.70711  0.08579  0.41421
E109  E   0.70711  0.08579  0.58579
E110  E   0.70711  0.17157  0.50000
E111  E   0.70711  0.41421  0.08579
E112  E   0.70711  0.41421  0.91421
E113  E   0.70711  0.50000  0.00000
E114  E   0.70711  0.50000  0.17157
E115  E   0.70711  0.50000  0.82843
E116  E   0.70711  0.58579  0.08579
E117  E   0.70711  0.58579  0.91421
E118  E   0.70711  0.82843  0.50000
E119  E   0.70711  0.91421  0.41421
E120  E   0.70711  0.91421  0.58579
E121  E   0.76777  0.23223  0.41421
E122  E   0.76777  0.23223  0.58579
E123  E   0.76777  0.41421  0.23223
E124  E   0.76777  0.41421  0.76777
E125  E   0.76777  0.58579  0.23223
E126  E   0.76777  0.58579  0.76777
E127  E   0.76777  0.76777  0.41421
E128  E   0.76777  0.76777  0.58579
E129  E   0.82843  0.29289  0.50000
E130  E   0.82843  0.35355  0.35355
E131  E   0.82843  0.35355  0.64645
E132  E   0.82843  0.50000  0.29289
E133  E   0.82843  0.50000  0.70711
E134  E   0.82843  0.64645  0.35355
E135  E   0.82843  0.64645  0.64645
E136  E   0.82843  0.70711  0.50000
E137  E   0.91421  0.29289  0.41421
E138  E   0.91421  0.29289  0.58579
E139  E   0.91421  0.41421  0.29289
E140  E   0.91421  0.41421  0.70711
E141  E   0.91421  0.58579  0.29289
E142  E   0.91421  0.58579  0.70711
E143  E   0.91421  0.70711  0.41421
E144  E   0.91421  0.70711  0.58579
loop_
