data_fuf_Pn-3m:2  hall_number: 522, V_con: 4, EC_con: 4
_audit_creation_date              2025-03-06
_audit_creation_method            'MOFbuilder_1.0'
_symmetry_space_group_name_H-M    'P1'
_symmetry_Int_Tables_number       1
_symmetry_cell_setting            triclinic
loop_
_symmetry_equiv_pos_as_xyz
  x,y,z
_cell_length_a                    51.3783
_cell_length_b                    51.3783
_cell_length_c                    51.3783
_cell_angle_alpha                 90.0
_cell_angle_beta                  90.0
_cell_angle_gamma                 90.0
loop_
_atom_site_label
_atom_site_type_symbol
_atom_site_fract_x
_atom_site_fract_y
_atom_site_fract_z
V1    V   0.11237  0.25000  0.75000
V2    V   0.11237  0.75000  0.25000
V3    V   0.25000  0.11237  0.75000
V4    V   0.25000  0.38763  0.75000
V5    V   0.25000  0.61237  0.75000
V6    V   0.25000  0.75000  0.11237
V7    V   0.25000  0.75000  0.38763
V8    V   0.25000  0.75000  0.61237
V9    V   0.25000  0.75000  0.88763
V10   V   0.25000  0.88763  0.75000
V11   V   0.38763  0.25000  0.75000
V12   V   0.38763  0.75000  0.25000
V13   V   0.61237  0.25000  0.75000
V14   V   0.61237  0.75000  0.25000
V15   V   0.75000  0.11237  0.25000
V16   V   0.75000  0.25000  0.11237
V17   V   0.75000  0.25000  0.38763
V18   V   0.75000  0.25000  0.61237
V19   V   0.75000  0.25000  0.88763
V20   V   0.75000  0.38763  0.25000
V21   V   0.75000  0.61237  0.25000
V22   V   0.75000  0.88763  0.25000
V23   V   0.88763  0.25000  0.75000
V24   V   0.88763  0.75000  0.25000
EC1    EC   0.00000  0.13763  0.86237
EC2    EC   0.00000  0.13763  0.86237
EC3    EC   0.00000  0.36237  0.63763
EC4    EC   0.00000  0.36237  0.63763
EC5    EC   0.00000  0.63763  0.36237
EC6    EC   0.00000  0.63763  0.36237
EC7    EC   0.00000  0.86237  0.13763
EC8    EC   0.00000  0.86237  0.13763
EC9    EC   0.13763  0.00000  0.86237
EC10   EC   0.13763  0.50000  0.63763
EC11   EC   0.13763  0.63763  0.50000
EC12   EC   0.13763  0.86237  0.00000
EC13   EC   0.13763  0.00000  0.86237
EC14   EC   0.13763  0.50000  0.63763
EC15   EC   0.13763  0.63763  0.50000
EC16   EC   0.13763  0.86237  0.00000
EC17   EC   0.36237  0.00000  0.63763
EC18   EC   0.36237  0.50000  0.86237
EC19   EC   0.36237  0.63763  0.00000
EC20   EC   0.36237  0.86237  0.50000
EC21   EC   0.36237  0.00000  0.63763
EC22   EC   0.36237  0.50000  0.86237
EC23   EC   0.36237  0.63763  0.00000
EC24   EC   0.36237  0.86237  0.50000
EC25   EC   0.50000  0.13763  0.63763
EC26   EC   0.50000  0.13763  0.63763
EC27   EC   0.50000  0.36237  0.86237
EC28   EC   0.50000  0.36237  0.86237
EC29   EC   0.50000  0.63763  0.13763
EC30   EC   0.50000  0.63763  0.13763
EC31   EC   0.50000  0.86237  0.36237
EC32   EC   0.50000  0.86237  0.36237
EC33   EC   0.63763  0.00000  0.36237
EC34   EC   0.63763  0.13763  0.50000
EC35   EC   0.63763  0.36237  0.00000
EC36   EC   0.63763  0.50000  0.13763
EC37   EC   0.63763  0.00000  0.36237
EC38   EC   0.63763  0.13763  0.50000
EC39   EC   0.63763  0.36237  0.00000
EC40   EC   0.63763  0.50000  0.13763
EC41   EC   0.86237  0.00000  0.13763
EC42   EC   0.86237  0.13763  0.00000
EC43   EC   0.86237  0.36237  0.50000
EC44   EC   0.86237  0.50000  0.36237
EC45   EC   0.86237  0.00000  0.13763
EC46   EC   0.86237  0.13763  0.00000
EC47   EC   0.86237  0.36237  0.50000
EC48   EC   0.86237  0.50000  0.36237
E1    E   0.05619  0.19381  0.80619
E2    E   0.05619  0.30619  0.69381
E3    E   0.05619  0.69381  0.30619
E4    E   0.05619  0.80619  0.19381
E5    E   0.06881  0.06881  0.86237
E6    E   0.06881  0.43119  0.63763
E7    E   0.06881  0.63763  0.43119
E8    E   0.06881  0.86237  0.06881
E9    E   0.06881  0.06881  0.86237
E10   E   0.06881  0.43119  0.63763
E11   E   0.06881  0.63763  0.43119
E12   E   0.06881  0.86237  0.06881
E13   E   0.13763  0.56881  0.56881
E14   E   0.13763  0.93119  0.93119
E15   E   0.18119  0.18119  0.75000
E16   E   0.18119  0.31881  0.75000
E17   E   0.18119  0.75000  0.18119
E18   E   0.18119  0.75000  0.31881
E19   E   0.19381  0.05619  0.80619
E20   E   0.19381  0.44381  0.69381
E21   E   0.19381  0.69381  0.44381
E22   E   0.19381  0.80619  0.05619
E23   E   0.19381  0.55619  0.69381
E24   E   0.19381  0.69381  0.55619
E25   E   0.19381  0.80619  0.94381
E26   E   0.19381  0.94381  0.80619
E27   E   0.25000  0.68119  0.68119
E28   E   0.25000  0.68119  0.81881
E29   E   0.25000  0.81881  0.68119
E30   E   0.25000  0.81881  0.81881
E31   E   0.30619  0.55619  0.80619
E32   E   0.30619  0.69381  0.94381
E33   E   0.30619  0.80619  0.55619
E34   E   0.30619  0.94381  0.69381
E35   E   0.30619  0.05619  0.69381
E36   E   0.30619  0.44381  0.80619
E37   E   0.30619  0.69381  0.05619
E38   E   0.30619  0.80619  0.44381
E39   E   0.31881  0.18119  0.75000
E40   E   0.31881  0.31881  0.75000
E41   E   0.31881  0.75000  0.18119
E42   E   0.31881  0.75000  0.31881
E43   E   0.36237  0.56881  0.93119
E44   E   0.36237  0.93119  0.56881
E45   E   0.43119  0.06881  0.63763
E46   E   0.43119  0.06881  0.63763
E47   E   0.43119  0.43119  0.86237
E48   E   0.43119  0.63763  0.06881
E49   E   0.43119  0.63763  0.06881
E50   E   0.43119  0.86237  0.43119
E51   E   0.44381  0.19381  0.69381
E52   E   0.44381  0.30619  0.80619
E53   E   0.44381  0.69381  0.19381
E54   E   0.44381  0.80619  0.30619
E55   E   0.55619  0.19381  0.69381
E56   E   0.55619  0.30619  0.80619
E57   E   0.55619  0.69381  0.19381
E58   E   0.55619  0.80619  0.30619
E59   E   0.56881  0.13763  0.56881
E60   E   0.56881  0.36237  0.93119
E61   E   0.56881  0.56881  0.13763
E62   E   0.56881  0.93119  0.36237
E63   E   0.63763  0.06881  0.43119
E64   E   0.63763  0.06881  0.43119
E65   E   0.63763  0.43119  0.06881
E66   E   0.63763  0.43119  0.06881
E67   E   0.68119  0.25000  0.68119
E68   E   0.68119  0.25000  0.81881
E69   E   0.68119  0.68119  0.25000
E70   E   0.68119  0.81881  0.25000
E71   E   0.69381  0.05619  0.30619
E72   E   0.69381  0.19381  0.44381
E73   E   0.69381  0.19381  0.55619
E74   E   0.69381  0.30619  0.94381
E75   E   0.69381  0.30619  0.05619
E76   E   0.69381  0.44381  0.19381
E77   E   0.69381  0.55619  0.19381
E78   E   0.69381  0.94381  0.30619
E79   E   0.75000  0.18119  0.18119
E80   E   0.75000  0.18119  0.31881
E81   E   0.75000  0.31881  0.18119
E82   E   0.75000  0.31881  0.31881
E83   E   0.80619  0.05619  0.19381
E84   E   0.80619  0.19381  0.05619
E85   E   0.80619  0.19381  0.94381
E86   E   0.80619  0.30619  0.55619
E87   E   0.80619  0.30619  0.44381
E88   E   0.80619  0.44381  0.30619
E89   E   0.80619  0.55619  0.30619
E90   E   0.80619  0.94381  0.19381
E91   E   0.81881  0.25000  0.68119
E92   E   0.81881  0.25000  0.81881
E93   E   0.81881  0.68119  0.25000
E94   E   0.81881  0.81881  0.25000
E95   E   0.86237  0.06881  0.06881
E96   E   0.86237  0.06881  0.06881
E97   E   0.86237  0.43119  0.43119
E98   E   0.93119  0.13763  0.93119
E99   E   0.93119  0.36237  0.56881
E100  E   0.93119  0.56881  0.36237
E101  E   0.93119  0.93119  0.13763
E102  E   0.94381  0.19381  0.80619
E103  E   0.94381  0.30619  0.69381
E104  E   0.94381  0.69381  0.30619
E105  E   0.94381  0.80619  0.19381
loop_
