data_fug_Pm-3m  hall_number: 517, V_con: 4, EC_con: 4
_audit_creation_date              2025-03-06
_audit_creation_method            'MOFbuilder_1.0'
_symmetry_space_group_name_H-M    'P1'
_symmetry_Int_Tables_number       1
_symmetry_cell_setting            triclinic
loop_
_symmetry_equiv_pos_as_xyz
  x,y,z
_cell_length_a                    62.4266
_cell_length_b                    62.4266
_cell_length_c                    62.4266
_cell_angle_alpha                 90.0
_cell_angle_beta                  90.0
_cell_angle_gamma                 90.0
loop_
_atom_site_label
_atom_site_type_symbol
_atom_site_fract_x
_atom_site_fract_y
_atom_site_fract_z
V1    V   0.08009  0.19336  0.41991
V2    V   0.08009  0.19336  0.58009
V3    V   0.08009  0.41991  0.19336
V4    V   0.08009  0.41991  0.80664
V5    V   0.08009  0.58009  0.19336
V6    V   0.08009  0.58009  0.80664
V7    V   0.08009  0.80664  0.41991
V8    V   0.08009  0.80664  0.58009
V9    V   0.19336  0.08009  0.41991
V10   V   0.19336  0.08009  0.58009
V11   V   0.19336  0.41991  0.08009
V12   V   0.19336  0.41991  0.91991
V13   V   0.19336  0.58009  0.08009
V14   V   0.19336  0.58009  0.91991
V15   V   0.19336  0.91991  0.41991
V16   V   0.19336  0.91991  0.58009
V17   V   0.41991  0.08009  0.19336
V18   V   0.41991  0.08009  0.80664
V19   V   0.41991  0.19336  0.08009
V20   V   0.41991  0.19336  0.91991
V21   V   0.41991  0.80664  0.08009
V22   V   0.41991  0.80664  0.91991
V23   V   0.41991  0.91991  0.19336
V24   V   0.41991  0.91991  0.80664
V25   V   0.58009  0.08009  0.19336
V26   V   0.58009  0.08009  0.80664
V27   V   0.58009  0.19336  0.08009
V28   V   0.58009  0.19336  0.91991
V29   V   0.58009  0.80664  0.08009
V30   V   0.58009  0.80664  0.91991
V31   V   0.58009  0.91991  0.19336
V32   V   0.58009  0.91991  0.80664
V33   V   0.80664  0.08009  0.41991
V34   V   0.80664  0.08009  0.58009
V35   V   0.80664  0.41991  0.08009
V36   V   0.80664  0.41991  0.91991
V37   V   0.80664  0.58009  0.08009
V38   V   0.80664  0.58009  0.91991
V39   V   0.80664  0.91991  0.41991
V40   V   0.80664  0.91991  0.58009
V41   V   0.91991  0.19336  0.41991
V42   V   0.91991  0.19336  0.58009
V43   V   0.91991  0.41991  0.19336
V44   V   0.91991  0.41991  0.80664
V45   V   0.91991  0.58009  0.19336
V46   V   0.91991  0.58009  0.80664
V47   V   0.91991  0.80664  0.41991
V48   V   0.91991  0.80664  0.58009
EC1    EC   0.19336  0.30663  0.41990
EC2    EC   0.19336  0.30663  0.58010
EC3    EC   0.19336  0.41990  0.30663
EC4    EC   0.19336  0.41990  0.69337
EC5    EC   0.19336  0.58010  0.30663
EC6    EC   0.19336  0.58010  0.69337
EC7    EC   0.19336  0.69337  0.41990
EC8    EC   0.19336  0.69337  0.58010
EC9    EC   0.30663  0.19336  0.41990
EC10   EC   0.30663  0.19336  0.58010
EC11   EC   0.30663  0.41990  0.19336
EC12   EC   0.30663  0.41990  0.80664
EC13   EC   0.30663  0.58010  0.19336
EC14   EC   0.30663  0.58010  0.80664
EC15   EC   0.30663  0.80664  0.41990
EC16   EC   0.30663  0.80664  0.58010
EC17   EC   0.41990  0.19336  0.30663
EC18   EC   0.41990  0.19336  0.69337
EC19   EC   0.41990  0.30663  0.19336
EC20   EC   0.41990  0.30663  0.80664
EC21   EC   0.41990  0.69337  0.19336
EC22   EC   0.41990  0.69337  0.80664
EC23   EC   0.41990  0.80664  0.30663
EC24   EC   0.41990  0.80664  0.69337
EC25   EC   0.58010  0.19336  0.30663
EC26   EC   0.58010  0.19336  0.69337
EC27   EC   0.58010  0.30663  0.19336
EC28   EC   0.58010  0.30663  0.80664
EC29   EC   0.58010  0.69337  0.19336
EC30   EC   0.58010  0.69337  0.80664
EC31   EC   0.58010  0.80664  0.30663
EC32   EC   0.58010  0.80664  0.69337
EC33   EC   0.69337  0.19336  0.41990
EC34   EC   0.69337  0.19336  0.58010
EC35   EC   0.69337  0.41990  0.19336
EC36   EC   0.69337  0.41990  0.80664
EC37   EC   0.69337  0.58010  0.19336
EC38   EC   0.69337  0.58010  0.80664
EC39   EC   0.69337  0.80664  0.41990
EC40   EC   0.69337  0.80664  0.58010
EC41   EC   0.80664  0.30663  0.41990
EC42   EC   0.80664  0.30663  0.58010
EC43   EC   0.80664  0.41990  0.30663
EC44   EC   0.80664  0.41990  0.69337
EC45   EC   0.80664  0.58010  0.30663
EC46   EC   0.80664  0.58010  0.69337
EC47   EC   0.80664  0.69337  0.41990
EC48   EC   0.80664  0.69337  0.58010
E1    E   0.00000  0.19336  0.41991
E2    E   0.00000  0.19336  0.58009
E3    E   0.00000  0.41991  0.19336
E4    E   0.00000  0.41991  0.80664
E5    E   0.00000  0.58009  0.19336
E6    E   0.00000  0.58009  0.80664
E7    E   0.00000  0.80664  0.41991
E8    E   0.00000  0.80664  0.58009
E9    E   0.08009  0.19336  0.50000
E10   E   0.08009  0.50000  0.19336
E11   E   0.08009  0.50000  0.80664
E12   E   0.08009  0.80664  0.50000
E13   E   0.13673  0.13673  0.41991
E14   E   0.13673  0.13673  0.58009
E15   E   0.13673  0.25000  0.41991
E16   E   0.13673  0.25000  0.58009
E17   E   0.13673  0.41991  0.13673
E18   E   0.13673  0.41991  0.25000
E19   E   0.13673  0.41991  0.75000
E20   E   0.13673  0.41991  0.86327
E21   E   0.13673  0.58009  0.13673
E22   E   0.13673  0.58009  0.25000
E23   E   0.13673  0.58009  0.75000
E24   E   0.13673  0.58009  0.86327
E25   E   0.13673  0.75000  0.41991
E26   E   0.13673  0.75000  0.58009
E27   E   0.13673  0.86327  0.41991
E28   E   0.13673  0.86327  0.58009
E29   E   0.19336  0.00000  0.41991
E30   E   0.19336  0.00000  0.58009
E31   E   0.19336  0.08009  0.50000
E32   E   0.19336  0.30663  0.50000
E33   E   0.19336  0.36327  0.36327
E34   E   0.19336  0.36327  0.63673
E35   E   0.19336  0.41991  0.00000
E36   E   0.19336  0.50000  0.08009
E37   E   0.19336  0.50000  0.30663
E38   E   0.19336  0.50000  0.69337
E39   E   0.19336  0.50000  0.91991
E40   E   0.19336  0.58009  0.00000
E41   E   0.19336  0.63673  0.36327
E42   E   0.19336  0.63673  0.63673
E43   E   0.19336  0.69337  0.50000
E44   E   0.19336  0.91991  0.50000
E45   E   0.25000  0.13673  0.41991
E46   E   0.25000  0.13673  0.58009
E47   E   0.25000  0.25000  0.41990
E48   E   0.25000  0.25000  0.58010
E49   E   0.25000  0.41990  0.25000
E50   E   0.25000  0.41990  0.75000
E51   E   0.25000  0.41991  0.13673
E52   E   0.25000  0.41991  0.86327
E53   E   0.25000  0.58009  0.13673
E54   E   0.25000  0.58009  0.86327
E55   E   0.25000  0.58010  0.25000
E56   E   0.25000  0.58010  0.75000
E57   E   0.25000  0.75000  0.41990
E58   E   0.25000  0.75000  0.58010
E59   E   0.25000  0.86327  0.41991
E60   E   0.25000  0.86327  0.58009
E61   E   0.30663  0.19336  0.50000
E62   E   0.30663  0.50000  0.19336
E63   E   0.30663  0.50000  0.80664
E64   E   0.30663  0.80664  0.50000
E65   E   0.36327  0.19336  0.36327
E66   E   0.36327  0.19336  0.63673
E67   E   0.36327  0.36327  0.19336
E68   E   0.36327  0.36327  0.80664
E69   E   0.36327  0.63673  0.19336
E70   E   0.36327  0.63673  0.80664
E71   E   0.36327  0.80664  0.36327
E72   E   0.36327  0.80664  0.63673
E73   E   0.41990  0.25000  0.25000
E74   E   0.41990  0.25000  0.75000
E75   E   0.41990  0.75000  0.25000
E76   E   0.41990  0.75000  0.75000
E77   E   0.41991  0.00000  0.19336
E78   E   0.41991  0.00000  0.80664
E79   E   0.41991  0.13673  0.13673
E80   E   0.41991  0.13673  0.25000
E81   E   0.41991  0.13673  0.75000
E82   E   0.41991  0.13673  0.86327
E83   E   0.41991  0.19336  0.00000
E84   E   0.41991  0.25000  0.13673
E85   E   0.41991  0.25000  0.86327
E86   E   0.41991  0.75000  0.13673
E87   E   0.41991  0.75000  0.86327
E88   E   0.41991  0.80664  0.00000
E89   E   0.41991  0.86327  0.13673
E90   E   0.41991  0.86327  0.25000
E91   E   0.41991  0.86327  0.75000
E92   E   0.41991  0.86327  0.86327
E93   E   0.50000  0.08009  0.19336
E94   E   0.50000  0.08009  0.80664
E95   E   0.50000  0.19336  0.08009
E96   E   0.50000  0.19336  0.30663
E97   E   0.50000  0.19336  0.69337
E98   E   0.50000  0.19336  0.91991
E99   E   0.50000  0.30663  0.19336
E100  E   0.50000  0.30663  0.80664
E101  E   0.50000  0.69337  0.19336
E102  E   0.50000  0.69337  0.80664
E103  E   0.50000  0.80664  0.08009
E104  E   0.50000  0.80664  0.30663
E105  E   0.50000  0.80664  0.69337
E106  E   0.50000  0.80664  0.91991
E107  E   0.50000  0.91991  0.19336
E108  E   0.50000  0.91991  0.80664
E109  E   0.58009  0.00000  0.19336
E110  E   0.58009  0.00000  0.80664
E111  E   0.58009  0.13673  0.13673
E112  E   0.58009  0.13673  0.25000
E113  E   0.58009  0.13673  0.75000
E114  E   0.58009  0.13673  0.86327
E115  E   0.58009  0.19336  0.00000
E116  E   0.58009  0.25000  0.13673
E117  E   0.58009  0.25000  0.86327
E118  E   0.58009  0.75000  0.13673
E119  E   0.58009  0.75000  0.86327
E120  E   0.58009  0.80664  0.00000
E121  E   0.58009  0.86327  0.13673
E122  E   0.58009  0.86327  0.25000
E123  E   0.58009  0.86327  0.75000
E124  E   0.58009  0.86327  0.86327
E125  E   0.58010  0.25000  0.25000
E126  E   0.58010  0.25000  0.75000
E127  E   0.58010  0.75000  0.25000
E128  E   0.58010  0.75000  0.75000
E129  E   0.63673  0.19336  0.36327
E130  E   0.63673  0.19336  0.63673
E131  E   0.63673  0.36327  0.19336
E132  E   0.63673  0.36327  0.80664
E133  E   0.63673  0.63673  0.19336
E134  E   0.63673  0.63673  0.80664
E135  E   0.63673  0.80664  0.36327
E136  E   0.63673  0.80664  0.63673
E137  E   0.69337  0.19336  0.50000
E138  E   0.69337  0.50000  0.19336
E139  E   0.69337  0.50000  0.80664
E140  E   0.69337  0.80664  0.50000
E141  E   0.75000  0.13673  0.41991
E142  E   0.75000  0.13673  0.58009
E143  E   0.75000  0.25000  0.41990
E144  E   0.75000  0.25000  0.58010
E145  E   0.75000  0.41990  0.25000
E146  E   0.75000  0.41990  0.75000
E147  E   0.75000  0.41991  0.13673
E148  E   0.75000  0.41991  0.86327
E149  E   0.75000  0.58009  0.13673
E150  E   0.75000  0.58009  0.86327
E151  E   0.75000  0.58010  0.25000
E152  E   0.75000  0.58010  0.75000
E153  E   0.75000  0.75000  0.41990
E154  E   0.75000  0.75000  0.58010
E155  E   0.75000  0.86327  0.41991
E156  E   0.75000  0.86327  0.58009
E157  E   0.80664  0.00000  0.41991
E158  E   0.80664  0.00000  0.58009
E159  E   0.80664  0.08009  0.50000
E160  E   0.80664  0.30663  0.50000
E161  E   0.80664  0.36327  0.36327
E162  E   0.80664  0.36327  0.63673
E163  E   0.80664  0.41991  0.00000
E164  E   0.80664  0.50000  0.08009
E165  E   0.80664  0.50000  0.30663
E166  E   0.80664  0.50000  0.69337
E167  E   0.80664  0.50000  0.91991
E168  E   0.80664  0.58009  0.00000
E169  E   0.80664  0.63673  0.36327
E170  E   0.80664  0.63673  0.63673
E171  E   0.80664  0.69337  0.50000
E172  E   0.80664  0.91991  0.50000
E173  E   0.86327  0.13673  0.41991
E174  E   0.86327  0.13673  0.58009
E175  E   0.86327  0.25000  0.41991
E176  E   0.86327  0.25000  0.58009
E177  E   0.86327  0.41991  0.13673
E178  E   0.86327  0.41991  0.25000
E179  E   0.86327  0.41991  0.75000
E180  E   0.86327  0.41991  0.86327
E181  E   0.86327  0.58009  0.13673
E182  E   0.86327  0.58009  0.25000
E183  E   0.86327  0.58009  0.75000
E184  E   0.86327  0.58009  0.86327
E185  E   0.86327  0.75000  0.41991
E186  E   0.86327  0.75000  0.58009
E187  E   0.86327  0.86327  0.41991
E188  E   0.86327  0.86327  0.58009
E189  E   0.91991  0.19336  0.50000
E190  E   0.91991  0.50000  0.19336
E191  E   0.91991  0.50000  0.80664
E192  E   0.91991  0.80664  0.50000
loop_
