data_fuw_Fd-3m:2  hall_number: 526, V_con: 4, EC_con: 4
_audit_creation_date              2025-03-06
_audit_creation_method            'MOFbuilder_1.0'
_symmetry_space_group_name_H-M    'P1'
_symmetry_Int_Tables_number       1
_symmetry_cell_setting            triclinic
loop_
_symmetry_equiv_pos_as_xyz
  x,y,z
_cell_length_a                    96.56869999999999
_cell_length_b                    96.56869999999999
_cell_length_c                    96.56869999999999
_cell_angle_alpha                 90.0
_cell_angle_beta                  90.0
_cell_angle_gamma                 90.0
loop_
_atom_site_label
_atom_site_type_symbol
_atom_site_fract_x
_atom_site_fract_y
_atom_site_fract_z
V1    V   0.02145  0.30178  0.37500
V2    V   0.02145  0.37500  0.30178
V3    V   0.02145  0.37500  0.44822
V4    V   0.02145  0.44822  0.37500
V5    V   0.02145  0.80178  0.87500
V6    V   0.02145  0.87500  0.80178
V7    V   0.02145  0.87500  0.94822
V8    V   0.02145  0.94822  0.87500
V9    V   0.05178  0.12500  0.27145
V10   V   0.05178  0.12500  0.97855
V11   V   0.05178  0.27145  0.12500
V12   V   0.05178  0.47855  0.62500
V13   V   0.05178  0.62500  0.47855
V14   V   0.05178  0.62500  0.77145
V15   V   0.05178  0.77145  0.62500
V16   V   0.05178  0.97855  0.12500
V17   V   0.12500  0.05178  0.27145
V18   V   0.12500  0.05178  0.97855
V19   V   0.12500  0.19822  0.27145
V20   V   0.12500  0.19822  0.97855
V21   V   0.12500  0.27145  0.05178
V22   V   0.12500  0.27145  0.19822
V23   V   0.12500  0.47855  0.55178
V24   V   0.12500  0.47855  0.69822
V25   V   0.12500  0.55178  0.47855
V26   V   0.12500  0.55178  0.77145
V27   V   0.12500  0.69822  0.47855
V28   V   0.12500  0.69822  0.77145
V29   V   0.12500  0.77145  0.55178
V30   V   0.12500  0.77145  0.69822
V31   V   0.12500  0.97855  0.05178
V32   V   0.12500  0.97855  0.19822
V33   V   0.19822  0.12500  0.27145
V34   V   0.19822  0.12500  0.97855
V35   V   0.19822  0.27145  0.12500
V36   V   0.19822  0.47855  0.62500
V37   V   0.19822  0.62500  0.47855
V38   V   0.19822  0.62500  0.77145
V39   V   0.19822  0.77145  0.62500
V40   V   0.19822  0.97855  0.12500
V41   V   0.22855  0.30178  0.87500
V42   V   0.22855  0.37500  0.80178
V43   V   0.22855  0.37500  0.94822
V44   V   0.22855  0.44822  0.87500
V45   V   0.22855  0.80178  0.37500
V46   V   0.22855  0.87500  0.30178
V47   V   0.22855  0.87500  0.44822
V48   V   0.22855  0.94822  0.37500
V49   V   0.27145  0.05178  0.12500
V50   V   0.27145  0.12500  0.05178
V51   V   0.27145  0.12500  0.19822
V52   V   0.27145  0.19822  0.12500
V53   V   0.27145  0.55178  0.62500
V54   V   0.27145  0.62500  0.55178
V55   V   0.27145  0.62500  0.69822
V56   V   0.27145  0.69822  0.62500
V57   V   0.30178  0.02145  0.37500
V58   V   0.30178  0.22855  0.87500
V59   V   0.30178  0.37500  0.02145
V60   V   0.30178  0.37500  0.72855
V61   V   0.30178  0.52145  0.87500
V62   V   0.30178  0.72855  0.37500
V63   V   0.30178  0.87500  0.22855
V64   V   0.30178  0.87500  0.52145
V65   V   0.37500  0.02145  0.30178
V66   V   0.37500  0.02145  0.44822
V67   V   0.37500  0.22855  0.80178
V68   V   0.37500  0.22855  0.94822
V69   V   0.37500  0.30178  0.02145
V70   V   0.37500  0.30178  0.72855
V71   V   0.37500  0.44822  0.02145
V72   V   0.37500  0.44822  0.72855
V73   V   0.37500  0.52145  0.80178
V74   V   0.37500  0.52145  0.94822
V75   V   0.37500  0.72855  0.30178
V76   V   0.37500  0.72855  0.44822
V77   V   0.37500  0.80178  0.22855
V78   V   0.37500  0.80178  0.52145
V79   V   0.37500  0.94822  0.22855
V80   V   0.37500  0.94822  0.52145
V81   V   0.44822  0.02145  0.37500
V82   V   0.44822  0.22855  0.87500
V83   V   0.44822  0.37500  0.02145
V84   V   0.44822  0.37500  0.72855
V85   V   0.44822  0.52145  0.87500
V86   V   0.44822  0.72855  0.37500
V87   V   0.44822  0.87500  0.22855
V88   V   0.44822  0.87500  0.52145
V89   V   0.47855  0.05178  0.62500
V90   V   0.47855  0.12500  0.55178
V91   V   0.47855  0.12500  0.69822
V92   V   0.47855  0.19822  0.62500
V93   V   0.47855  0.55178  0.12500
V94   V   0.47855  0.62500  0.05178
V95   V   0.47855  0.62500  0.19822
V96   V   0.47855  0.69822  0.12500
V97   V   0.52145  0.30178  0.87500
V98   V   0.52145  0.37500  0.80178
V99   V   0.52145  0.37500  0.94822
V100  V   0.52145  0.44822  0.87500
V101  V   0.52145  0.80178  0.37500
V102  V   0.52145  0.87500  0.30178
V103  V   0.52145  0.87500  0.44822
V104  V   0.52145  0.94822  0.37500
V105  V   0.55178  0.12500  0.47855
V106  V   0.55178  0.12500  0.77145
V107  V   0.55178  0.27145  0.62500
V108  V   0.55178  0.47855  0.12500
V109  V   0.55178  0.62500  0.27145
V110  V   0.55178  0.62500  0.97855
V111  V   0.55178  0.77145  0.12500
V112  V   0.55178  0.97855  0.62500
V113  V   0.62500  0.05178  0.47855
V114  V   0.62500  0.05178  0.77145
V115  V   0.62500  0.19822  0.47855
V116  V   0.62500  0.19822  0.77145
V117  V   0.62500  0.27145  0.55178
V118  V   0.62500  0.27145  0.69822
V119  V   0.62500  0.47855  0.05178
V120  V   0.62500  0.47855  0.19822
V121  V   0.62500  0.55178  0.27145
V122  V   0.62500  0.55178  0.97855
V123  V   0.62500  0.69822  0.27145
V124  V   0.62500  0.69822  0.97855
V125  V   0.62500  0.77145  0.05178
V126  V   0.62500  0.77145  0.19822
V127  V   0.62500  0.97855  0.55178
V128  V   0.62500  0.97855  0.69822
V129  V   0.69822  0.12500  0.47855
V130  V   0.69822  0.12500  0.77145
V131  V   0.69822  0.27145  0.62500
V132  V   0.69822  0.47855  0.12500
V133  V   0.69822  0.62500  0.27145
V134  V   0.69822  0.62500  0.97855
V135  V   0.69822  0.77145  0.12500
V136  V   0.69822  0.97855  0.62500
V137  V   0.72855  0.30178  0.37500
V138  V   0.72855  0.37500  0.30178
V139  V   0.72855  0.37500  0.44822
V140  V   0.72855  0.44822  0.37500
V141  V   0.72855  0.80178  0.87500
V142  V   0.72855  0.87500  0.80178
V143  V   0.72855  0.87500  0.94822
V144  V   0.72855  0.94822  0.87500
V145  V   0.77145  0.05178  0.62500
V146  V   0.77145  0.12500  0.55178
V147  V   0.77145  0.12500  0.69822
V148  V   0.77145  0.19822  0.62500
V149  V   0.77145  0.55178  0.12500
V150  V   0.77145  0.62500  0.05178
V151  V   0.77145  0.62500  0.19822
V152  V   0.77145  0.69822  0.12500
V153  V   0.80178  0.02145  0.87500
V154  V   0.80178  0.22855  0.37500
V155  V   0.80178  0.37500  0.22855
V156  V   0.80178  0.37500  0.52145
V157  V   0.80178  0.52145  0.37500
V158  V   0.80178  0.72855  0.87500
V159  V   0.80178  0.87500  0.02145
V160  V   0.80178  0.87500  0.72855
V161  V   0.87500  0.02145  0.80178
V162  V   0.87500  0.02145  0.94822
V163  V   0.87500  0.22855  0.30178
V164  V   0.87500  0.22855  0.44822
V165  V   0.87500  0.30178  0.22855
V166  V   0.87500  0.30178  0.52145
V167  V   0.87500  0.44822  0.22855
V168  V   0.87500  0.44822  0.52145
V169  V   0.87500  0.52145  0.30178
V170  V   0.87500  0.52145  0.44822
V171  V   0.87500  0.72855  0.80178
V172  V   0.87500  0.72855  0.94822
V173  V   0.87500  0.80178  0.02145
V174  V   0.87500  0.80178  0.72855
V175  V   0.87500  0.94822  0.02145
V176  V   0.87500  0.94822  0.72855
V177  V   0.94822  0.02145  0.87500
V178  V   0.94822  0.22855  0.37500
V179  V   0.94822  0.37500  0.22855
V180  V   0.94822  0.37500  0.52145
V181  V   0.94822  0.52145  0.37500
V182  V   0.94822  0.72855  0.87500
V183  V   0.94822  0.87500  0.02145
V184  V   0.94822  0.87500  0.72855
V185  V   0.97855  0.05178  0.12500
V186  V   0.97855  0.12500  0.05178
V187  V   0.97855  0.12500  0.19822
V188  V   0.97855  0.19822  0.12500
V189  V   0.97855  0.55178  0.62500
V190  V   0.97855  0.62500  0.55178
V191  V   0.97855  0.62500  0.69822
V192  V   0.97855  0.69822  0.62500
EC1    EC   0.05178  0.12500  0.37500
EC2    EC   0.05178  0.12500  0.87500
EC3    EC   0.05178  0.37500  0.12500
EC4    EC   0.05178  0.37500  0.62500
EC5    EC   0.05178  0.62500  0.37500
EC6    EC   0.05178  0.62500  0.87500
EC7    EC   0.05178  0.87500  0.12500
EC8    EC   0.05178  0.87500  0.62500
EC9    EC   0.12500  0.05178  0.37500
EC10   EC   0.12500  0.05178  0.87500
EC11   EC   0.12500  0.19822  0.37500
EC12   EC   0.12500  0.19822  0.87500
EC13   EC   0.12500  0.30178  0.37500
EC14   EC   0.12500  0.30178  0.87500
EC15   EC   0.12500  0.37500  0.05178
EC16   EC   0.12500  0.37500  0.19822
EC17   EC   0.12500  0.37500  0.30178
EC18   EC   0.12500  0.37500  0.44822
EC19   EC   0.12500  0.37500  0.55178
EC20   EC   0.12500  0.37500  0.69822
EC21   EC   0.12500  0.37500  0.80178
EC22   EC   0.12500  0.37500  0.94822
EC23   EC   0.12500  0.44822  0.37500
EC24   EC   0.12500  0.44822  0.87500
EC25   EC   0.12500  0.55178  0.37500
EC26   EC   0.12500  0.55178  0.87500
EC27   EC   0.12500  0.69822  0.37500
EC28   EC   0.12500  0.69822  0.87500
EC29   EC   0.12500  0.80178  0.37500
EC30   EC   0.12500  0.80178  0.87500
EC31   EC   0.12500  0.87500  0.05178
EC32   EC   0.12500  0.87500  0.19822
EC33   EC   0.12500  0.87500  0.30178
EC34   EC   0.12500  0.87500  0.44822
EC35   EC   0.12500  0.87500  0.55178
EC36   EC   0.12500  0.87500  0.69822
EC37   EC   0.12500  0.87500  0.80178
EC38   EC   0.12500  0.87500  0.94822
EC39   EC   0.12500  0.94822  0.37500
EC40   EC   0.12500  0.94822  0.87500
EC41   EC   0.19822  0.12500  0.37500
EC42   EC   0.19822  0.12500  0.87500
EC43   EC   0.19822  0.37500  0.12500
EC44   EC   0.19822  0.37500  0.62500
EC45   EC   0.19822  0.62500  0.37500
EC46   EC   0.19822  0.62500  0.87500
EC47   EC   0.19822  0.87500  0.12500
EC48   EC   0.19822  0.87500  0.62500
EC49   EC   0.30178  0.12500  0.37500
EC50   EC   0.30178  0.12500  0.87500
EC51   EC   0.30178  0.37500  0.12500
EC52   EC   0.30178  0.37500  0.62500
EC53   EC   0.30178  0.62500  0.37500
EC54   EC   0.30178  0.62500  0.87500
EC55   EC   0.30178  0.87500  0.12500
EC56   EC   0.30178  0.87500  0.62500
EC57   EC   0.37500  0.05178  0.12500
EC58   EC   0.37500  0.05178  0.62500
EC59   EC   0.37500  0.12500  0.05178
EC60   EC   0.37500  0.12500  0.19822
EC61   EC   0.37500  0.12500  0.30178
EC62   EC   0.37500  0.12500  0.44822
EC63   EC   0.37500  0.12500  0.55178
EC64   EC   0.37500  0.12500  0.69822
EC65   EC   0.37500  0.12500  0.80178
EC66   EC   0.37500  0.12500  0.94822
EC67   EC   0.37500  0.19822  0.12500
EC68   EC   0.37500  0.19822  0.62500
EC69   EC   0.37500  0.30178  0.12500
EC70   EC   0.37500  0.30178  0.62500
EC71   EC   0.37500  0.44822  0.12500
EC72   EC   0.37500  0.44822  0.62500
EC73   EC   0.37500  0.55178  0.12500
EC74   EC   0.37500  0.55178  0.62500
EC75   EC   0.37500  0.62500  0.05178
EC76   EC   0.37500  0.62500  0.19822
EC77   EC   0.37500  0.62500  0.30178
EC78   EC   0.37500  0.62500  0.44822
EC79   EC   0.37500  0.62500  0.55178
EC80   EC   0.37500  0.62500  0.69822
EC81   EC   0.37500  0.62500  0.80178
EC82   EC   0.37500  0.62500  0.94822
EC83   EC   0.37500  0.69822  0.12500
EC84   EC   0.37500  0.69822  0.62500
EC85   EC   0.37500  0.80178  0.12500
EC86   EC   0.37500  0.80178  0.62500
EC87   EC   0.37500  0.94822  0.12500
EC88   EC   0.37500  0.94822  0.62500
EC89   EC   0.44822  0.12500  0.37500
EC90   EC   0.44822  0.12500  0.87500
EC91   EC   0.44822  0.37500  0.12500
EC92   EC   0.44822  0.37500  0.62500
EC93   EC   0.44822  0.62500  0.37500
EC94   EC   0.44822  0.62500  0.87500
EC95   EC   0.44822  0.87500  0.12500
EC96   EC   0.44822  0.87500  0.62500
EC97   EC   0.55178  0.12500  0.37500
EC98   EC   0.55178  0.12500  0.87500
EC99   EC   0.55178  0.37500  0.12500
EC100  EC   0.55178  0.37500  0.62500
EC101  EC   0.55178  0.62500  0.37500
EC102  EC   0.55178  0.62500  0.87500
EC103  EC   0.55178  0.87500  0.12500
EC104  EC   0.55178  0.87500  0.62500
EC105  EC   0.62500  0.05178  0.37500
EC106  EC   0.62500  0.05178  0.87500
EC107  EC   0.62500  0.19822  0.37500
EC108  EC   0.62500  0.19822  0.87500
EC109  EC   0.62500  0.30178  0.37500
EC110  EC   0.62500  0.30178  0.87500
EC111  EC   0.62500  0.37500  0.05178
EC112  EC   0.62500  0.37500  0.19822
EC113  EC   0.62500  0.37500  0.30178
EC114  EC   0.62500  0.37500  0.44822
EC115  EC   0.62500  0.37500  0.55178
EC116  EC   0.62500  0.37500  0.69822
EC117  EC   0.62500  0.37500  0.80178
EC118  EC   0.62500  0.37500  0.94822
EC119  EC   0.62500  0.44822  0.37500
EC120  EC   0.62500  0.44822  0.87500
EC121  EC   0.62500  0.55178  0.37500
EC122  EC   0.62500  0.55178  0.87500
EC123  EC   0.62500  0.69822  0.37500
EC124  EC   0.62500  0.69822  0.87500
EC125  EC   0.62500  0.80178  0.37500
EC126  EC   0.62500  0.80178  0.87500
EC127  EC   0.62500  0.87500  0.05178
EC128  EC   0.62500  0.87500  0.19822
EC129  EC   0.62500  0.87500  0.30178
EC130  EC   0.62500  0.87500  0.44822
EC131  EC   0.62500  0.87500  0.55178
EC132  EC   0.62500  0.87500  0.69822
EC133  EC   0.62500  0.87500  0.80178
EC134  EC   0.62500  0.87500  0.94822
EC135  EC   0.62500  0.94822  0.37500
EC136  EC   0.62500  0.94822  0.87500
EC137  EC   0.69822  0.12500  0.37500
EC138  EC   0.69822  0.12500  0.87500
EC139  EC   0.69822  0.37500  0.12500
EC140  EC   0.69822  0.37500  0.62500
EC141  EC   0.69822  0.62500  0.37500
EC142  EC   0.69822  0.62500  0.87500
EC143  EC   0.69822  0.87500  0.12500
EC144  EC   0.69822  0.87500  0.62500
EC145  EC   0.80178  0.12500  0.37500
EC146  EC   0.80178  0.12500  0.87500
EC147  EC   0.80178  0.37500  0.12500
EC148  EC   0.80178  0.37500  0.62500
EC149  EC   0.80178  0.62500  0.37500
EC150  EC   0.80178  0.62500  0.87500
EC151  EC   0.80178  0.87500  0.12500
EC152  EC   0.80178  0.87500  0.62500
EC153  EC   0.87500  0.05178  0.12500
EC154  EC   0.87500  0.05178  0.62500
EC155  EC   0.87500  0.12500  0.05178
EC156  EC   0.87500  0.12500  0.19822
EC157  EC   0.87500  0.12500  0.30178
EC158  EC   0.87500  0.12500  0.44822
EC159  EC   0.87500  0.12500  0.55178
EC160  EC   0.87500  0.12500  0.69822
EC161  EC   0.87500  0.12500  0.80178
EC162  EC   0.87500  0.12500  0.94822
EC163  EC   0.87500  0.19822  0.12500
EC164  EC   0.87500  0.19822  0.62500
EC165  EC   0.87500  0.30178  0.12500
EC166  EC   0.87500  0.30178  0.62500
EC167  EC   0.87500  0.44822  0.12500
EC168  EC   0.87500  0.44822  0.62500
EC169  EC   0.87500  0.55178  0.12500
EC170  EC   0.87500  0.55178  0.62500
EC171  EC   0.87500  0.62500  0.05178
EC172  EC   0.87500  0.62500  0.19822
EC173  EC   0.87500  0.62500  0.30178
EC174  EC   0.87500  0.62500  0.44822
EC175  EC   0.87500  0.62500  0.55178
EC176  EC   0.87500  0.62500  0.69822
EC177  EC   0.87500  0.62500  0.80178
EC178  EC   0.87500  0.62500  0.94822
EC179  EC   0.87500  0.69822  0.12500
EC180  EC   0.87500  0.69822  0.62500
EC181  EC   0.87500  0.80178  0.12500
EC182  EC   0.87500  0.80178  0.62500
EC183  EC   0.87500  0.94822  0.12500
EC184  EC   0.87500  0.94822  0.62500
EC185  EC   0.94822  0.12500  0.37500
EC186  EC   0.94822  0.12500  0.87500
EC187  EC   0.94822  0.37500  0.12500
EC188  EC   0.94822  0.37500  0.62500
EC189  EC   0.94822  0.62500  0.37500
EC190  EC   0.94822  0.62500  0.87500
EC191  EC   0.94822  0.87500  0.12500
EC192  EC   0.94822  0.87500  0.62500
E1    E   0.00000  0.12500  0.37500
E2    E   0.00000  0.12500  0.87500
E3    E   0.00000  0.37500  0.12500
E4    E   0.00000  0.37500  0.62500
E5    E   0.00000  0.62500  0.37500
E6    E   0.00000  0.62500  0.87500
E7    E   0.00000  0.87500  0.12500
E8    E   0.00000  0.87500  0.62500
E9    E   0.01516  0.01516  0.12500
E10   E   0.01516  0.12500  0.01516
E11   E   0.01516  0.12500  0.23484
E12   E   0.01516  0.23484  0.12500
E13   E   0.01516  0.51516  0.62500
E14   E   0.01516  0.62500  0.51516
E15   E   0.01516  0.62500  0.73484
E16   E   0.01516  0.73484  0.62500
E17   E   0.01516  0.01516  0.12500
E18   E   0.01516  0.12500  0.01516
E19   E   0.01516  0.12500  0.23484
E20   E   0.01516  0.23484  0.12500
E21   E   0.01516  0.51516  0.62500
E22   E   0.01516  0.62500  0.51516
E23   E   0.01516  0.62500  0.73484
E24   E   0.01516  0.73484  0.62500
E25   E   0.02145  0.33839  0.33839
E26   E   0.02145  0.33839  0.41161
E27   E   0.02145  0.41161  0.33839
E28   E   0.02145  0.41161  0.41161
E29   E   0.02145  0.83839  0.83839
E30   E   0.02145  0.83839  0.91161
E31   E   0.02145  0.91161  0.83839
E32   E   0.02145  0.91161  0.91161
E33   E   0.05178  0.12500  0.32322
E34   E   0.05178  0.12500  0.92678
E35   E   0.05178  0.32322  0.12500
E36   E   0.05178  0.42678  0.62500
E37   E   0.05178  0.62500  0.42678
E38   E   0.05178  0.62500  0.82322
E39   E   0.05178  0.82322  0.62500
E40   E   0.05178  0.92678  0.12500
E41   E   0.07322  0.30178  0.37500
E42   E   0.07322  0.37500  0.30178
E43   E   0.07322  0.37500  0.44822
E44   E   0.07322  0.44822  0.37500
E45   E   0.07322  0.80178  0.87500
E46   E   0.07322  0.87500  0.80178
E47   E   0.07322  0.87500  0.94822
E48   E   0.07322  0.94822  0.87500
E49   E   0.08839  0.08839  0.27145
E50   E   0.08839  0.08839  0.37500
E51   E   0.08839  0.08839  0.87500
E52   E   0.08839  0.08839  0.97855
E53   E   0.08839  0.16161  0.27145
E54   E   0.08839  0.16161  0.37500
E55   E   0.08839  0.16161  0.87500
E56   E   0.08839  0.16161  0.97855
E57   E   0.08839  0.27145  0.08839
E58   E   0.08839  0.27145  0.16161
E59   E   0.08839  0.37500  0.08839
E60   E   0.08839  0.37500  0.16161
E61   E   0.08839  0.37500  0.58839
E62   E   0.08839  0.37500  0.66161
E63   E   0.08839  0.47855  0.58839
E64   E   0.08839  0.47855  0.66161
E65   E   0.08839  0.58839  0.37500
E66   E   0.08839  0.58839  0.47855
E67   E   0.08839  0.58839  0.77145
E68   E   0.08839  0.58839  0.87500
E69   E   0.08839  0.66161  0.37500
E70   E   0.08839  0.66161  0.47855
E71   E   0.08839  0.66161  0.77145
E72   E   0.08839  0.66161  0.87500
E73   E   0.08839  0.77145  0.58839
E74   E   0.08839  0.77145  0.66161
E75   E   0.08839  0.87500  0.08839
E76   E   0.08839  0.87500  0.16161
E77   E   0.08839  0.87500  0.58839
E78   E   0.08839  0.87500  0.66161
E79   E   0.08839  0.97855  0.08839
E80   E   0.08839  0.97855  0.16161
E81   E   0.12500  0.00000  0.37500
E82   E   0.12500  0.00000  0.87500
E83   E   0.12500  0.01516  0.01516
E84   E   0.12500  0.01516  0.23484
E85   E   0.12500  0.01516  0.01516
E86   E   0.12500  0.01516  0.23484
E87   E   0.12500  0.05178  0.32322
E88   E   0.12500  0.05178  0.92678
E89   E   0.12500  0.19822  0.32322
E90   E   0.12500  0.19822  0.92678
E91   E   0.12500  0.23484  0.01516
E92   E   0.12500  0.23484  0.01516
E93   E   0.12500  0.23484  0.23484
E94   E   0.12500  0.25000  0.37500
E95   E   0.12500  0.25000  0.87500
E96   E   0.12500  0.32322  0.05178
E97   E   0.12500  0.32322  0.19822
E98   E   0.12500  0.33839  0.33839
E99   E   0.12500  0.33839  0.41161
E100  E   0.12500  0.33839  0.83839
E101  E   0.12500  0.33839  0.91161
E102  E   0.12500  0.37500  0.00000
E103  E   0.12500  0.37500  0.25000
E104  E   0.12500  0.37500  0.50000
E105  E   0.12500  0.37500  0.75000
E106  E   0.12500  0.41161  0.33839
E107  E   0.12500  0.41161  0.41161
E108  E   0.12500  0.41161  0.83839
E109  E   0.12500  0.41161  0.91161
E110  E   0.12500  0.42678  0.55178
E111  E   0.12500  0.42678  0.69822
E112  E   0.12500  0.50000  0.37500
E113  E   0.12500  0.50000  0.87500
E114  E   0.12500  0.51516  0.51516
E115  E   0.12500  0.51516  0.73484
E116  E   0.12500  0.51516  0.51516
E117  E   0.12500  0.51516  0.73484
E118  E   0.12500  0.55178  0.42678
E119  E   0.12500  0.55178  0.82322
E120  E   0.12500  0.69822  0.42678
E121  E   0.12500  0.69822  0.82322
E122  E   0.12500  0.73484  0.51516
E123  E   0.12500  0.73484  0.73484
E124  E   0.12500  0.73484  0.51516
E125  E   0.12500  0.73484  0.73484
E126  E   0.12500  0.75000  0.37500
E127  E   0.12500  0.75000  0.87500
E128  E   0.12500  0.82322  0.55178
E129  E   0.12500  0.82322  0.69822
E130  E   0.12500  0.83839  0.33839
E131  E   0.12500  0.83839  0.41161
E132  E   0.12500  0.83839  0.83839
E133  E   0.12500  0.83839  0.91161
E134  E   0.12500  0.87500  0.00000
E135  E   0.12500  0.87500  0.25000
E136  E   0.12500  0.87500  0.50000
E137  E   0.12500  0.87500  0.75000
E138  E   0.12500  0.91161  0.33839
E139  E   0.12500  0.91161  0.41161
E140  E   0.12500  0.91161  0.83839
E141  E   0.12500  0.91161  0.91161
E142  E   0.12500  0.92678  0.05178
E143  E   0.12500  0.92678  0.19822
E144  E   0.16161  0.08839  0.27145
E145  E   0.16161  0.08839  0.37500
E146  E   0.16161  0.08839  0.87500
E147  E   0.16161  0.08839  0.97855
E148  E   0.16161  0.16161  0.27145
E149  E   0.16161  0.16161  0.37500
E150  E   0.16161  0.16161  0.87500
E151  E   0.16161  0.16161  0.97855
E152  E   0.16161  0.27145  0.08839
E153  E   0.16161  0.27145  0.16161
E154  E   0.16161  0.37500  0.08839
E155  E   0.16161  0.37500  0.16161
E156  E   0.16161  0.37500  0.58839
E157  E   0.16161  0.37500  0.66161
E158  E   0.16161  0.47855  0.58839
E159  E   0.16161  0.47855  0.66161
E160  E   0.16161  0.58839  0.37500
E161  E   0.16161  0.58839  0.47855
E162  E   0.16161  0.58839  0.77145
E163  E   0.16161  0.58839  0.87500
E164  E   0.16161  0.66161  0.37500
E165  E   0.16161  0.66161  0.47855
E166  E   0.16161  0.66161  0.77145
E167  E   0.16161  0.66161  0.87500
E168  E   0.16161  0.77145  0.58839
E169  E   0.16161  0.77145  0.66161
E170  E   0.16161  0.87500  0.08839
E171  E   0.16161  0.87500  0.16161
E172  E   0.16161  0.87500  0.58839
E173  E   0.16161  0.87500  0.66161
E174  E   0.16161  0.97855  0.08839
E175  E   0.16161  0.97855  0.16161
E176  E   0.17678  0.30178  0.87500
E177  E   0.17678  0.37500  0.80178
E178  E   0.17678  0.37500  0.94822
E179  E   0.17678  0.44822  0.87500
E180  E   0.17678  0.80178  0.37500
E181  E   0.17678  0.87500  0.30178
E182  E   0.17678  0.87500  0.44822
E183  E   0.17678  0.94822  0.37500
E184  E   0.19822  0.12500  0.32322
E185  E   0.19822  0.12500  0.92678
E186  E   0.19822  0.32322  0.12500
E187  E   0.19822  0.42678  0.62500
E188  E   0.19822  0.62500  0.42678
E189  E   0.19822  0.62500  0.82322
E190  E   0.19822  0.82322  0.62500
E191  E   0.19822  0.92678  0.12500
E192  E   0.22855  0.33839  0.83839
E193  E   0.22855  0.33839  0.91161
E194  E   0.22855  0.41161  0.83839
E195  E   0.22855  0.41161  0.91161
E196  E   0.22855  0.83839  0.33839
E197  E   0.22855  0.83839  0.41161
E198  E   0.22855  0.91161  0.33839
E199  E   0.22855  0.91161  0.41161
E200  E   0.23484  0.01516  0.12500
E201  E   0.23484  0.01516  0.12500
E202  E   0.23484  0.12500  0.01516
E203  E   0.23484  0.12500  0.01516
E204  E   0.23484  0.12500  0.23484
E205  E   0.23484  0.23484  0.12500
E206  E   0.23484  0.51516  0.62500
E207  E   0.23484  0.51516  0.62500
E208  E   0.23484  0.62500  0.51516
E209  E   0.23484  0.62500  0.51516
E210  E   0.23484  0.62500  0.73484
E211  E   0.23484  0.62500  0.73484
E212  E   0.23484  0.73484  0.62500
E213  E   0.23484  0.73484  0.62500
E214  E   0.25000  0.12500  0.37500
E215  E   0.25000  0.12500  0.87500
E216  E   0.25000  0.37500  0.12500
E217  E   0.25000  0.37500  0.62500
E218  E   0.25000  0.62500  0.37500
E219  E   0.25000  0.62500  0.87500
E220  E   0.25000  0.87500  0.12500
E221  E   0.25000  0.87500  0.62500
E222  E   0.26516  0.26516  0.87500
E223  E   0.26516  0.37500  0.76516
E224  E   0.26516  0.37500  0.76516
E225  E   0.26516  0.37500  0.98484
E226  E   0.26516  0.37500  0.98484
E227  E   0.26516  0.48484  0.87500
E228  E   0.26516  0.76516  0.37500
E229  E   0.26516  0.76516  0.37500
E230  E   0.26516  0.87500  0.26516
E231  E   0.26516  0.87500  0.48484
E232  E   0.26516  0.98484  0.37500
E233  E   0.26516  0.98484  0.37500
E234  E   0.27145  0.08839  0.08839
E235  E   0.27145  0.08839  0.16161
E236  E   0.27145  0.16161  0.08839
E237  E   0.27145  0.16161  0.16161
E238  E   0.27145  0.58839  0.58839
E239  E   0.27145  0.58839  0.66161
E240  E   0.27145  0.66161  0.58839
E241  E   0.27145  0.66161  0.66161
E242  E   0.30178  0.07322  0.37500
E243  E   0.30178  0.17678  0.87500
E244  E   0.30178  0.37500  0.07322
E245  E   0.30178  0.37500  0.67678
E246  E   0.30178  0.57322  0.87500
E247  E   0.30178  0.67678  0.37500
E248  E   0.30178  0.87500  0.17678
E249  E   0.30178  0.87500  0.57322
E250  E   0.32322  0.05178  0.12500
E251  E   0.32322  0.12500  0.05178
E252  E   0.32322  0.12500  0.19822
E253  E   0.32322  0.19822  0.12500
E254  E   0.32322  0.55178  0.62500
E255  E   0.32322  0.62500  0.55178
E256  E   0.32322  0.62500  0.69822
E257  E   0.32322  0.69822  0.62500
E258  E   0.33839  0.02145  0.33839
E259  E   0.33839  0.02145  0.41161
E260  E   0.33839  0.12500  0.33839
E261  E   0.33839  0.12500  0.41161
E262  E   0.33839  0.12500  0.83839
E263  E   0.33839  0.12500  0.91161
E264  E   0.33839  0.22855  0.83839
E265  E   0.33839  0.22855  0.91161
E266  E   0.33839  0.33839  0.02145
E267  E   0.33839  0.33839  0.12500
E268  E   0.33839  0.33839  0.62500
E269  E   0.33839  0.33839  0.72855
E270  E   0.33839  0.41161  0.02145
E271  E   0.33839  0.41161  0.12500
E272  E   0.33839  0.41161  0.62500
E273  E   0.33839  0.41161  0.72855
E274  E   0.33839  0.52145  0.83839
E275  E   0.33839  0.52145  0.91161
E276  E   0.33839  0.62500  0.33839
E277  E   0.33839  0.62500  0.41161
E278  E   0.33839  0.62500  0.83839
E279  E   0.33839  0.62500  0.91161
E280  E   0.33839  0.72855  0.33839
E281  E   0.33839  0.72855  0.41161
E282  E   0.33839  0.83839  0.12500
E283  E   0.33839  0.83839  0.22855
E284  E   0.33839  0.83839  0.52145
E285  E   0.33839  0.83839  0.62500
E286  E   0.33839  0.91161  0.12500
E287  E   0.33839  0.91161  0.22855
E288  E   0.33839  0.91161  0.52145
E289  E   0.33839  0.91161  0.62500
E290  E   0.37500  0.00000  0.12500
E291  E   0.37500  0.00000  0.62500
E292  E   0.37500  0.07322  0.30178
E293  E   0.37500  0.07322  0.44822
E294  E   0.37500  0.08839  0.08839
E295  E   0.37500  0.08839  0.16161
E296  E   0.37500  0.08839  0.58839
E297  E   0.37500  0.08839  0.66161
E298  E   0.37500  0.12500  0.00000
E299  E   0.37500  0.12500  0.25000
E300  E   0.37500  0.12500  0.50000
E301  E   0.37500  0.12500  0.75000
E302  E   0.37500  0.16161  0.08839
E303  E   0.37500  0.16161  0.16161
E304  E   0.37500  0.16161  0.58839
E305  E   0.37500  0.16161  0.66161
E306  E   0.37500  0.17678  0.80178
E307  E   0.37500  0.17678  0.94822
E308  E   0.37500  0.25000  0.12500
E309  E   0.37500  0.25000  0.62500
E310  E   0.37500  0.26516  0.76516
E311  E   0.37500  0.26516  0.76516
E312  E   0.37500  0.26516  0.98484
E313  E   0.37500  0.26516  0.98484
E314  E   0.37500  0.30178  0.07322
E315  E   0.37500  0.30178  0.67678
E316  E   0.37500  0.44822  0.07322
E317  E   0.37500  0.44822  0.67678
E318  E   0.37500  0.48484  0.76516
E319  E   0.37500  0.48484  0.76516
E320  E   0.37500  0.48484  0.98484
E321  E   0.37500  0.48484  0.98484
E322  E   0.37500  0.50000  0.12500
E323  E   0.37500  0.50000  0.62500
E324  E   0.37500  0.57322  0.80178
E325  E   0.37500  0.57322  0.94822
E326  E   0.37500  0.58839  0.08839
E327  E   0.37500  0.58839  0.16161
E328  E   0.37500  0.58839  0.58839
E329  E   0.37500  0.58839  0.66161
E330  E   0.37500  0.62500  0.00000
E331  E   0.37500  0.62500  0.25000
E332  E   0.37500  0.62500  0.50000
E333  E   0.37500  0.62500  0.75000
E334  E   0.37500  0.66161  0.08839
E335  E   0.37500  0.66161  0.16161
E336  E   0.37500  0.66161  0.58839
E337  E   0.37500  0.66161  0.66161
E338  E   0.37500  0.67678  0.30178
E339  E   0.37500  0.67678  0.44822
E340  E   0.37500  0.75000  0.12500
E341  E   0.37500  0.75000  0.62500
E342  E   0.37500  0.76516  0.26516
E343  E   0.37500  0.76516  0.48484
E344  E   0.37500  0.76516  0.26516
E345  E   0.37500  0.76516  0.48484
E346  E   0.37500  0.80178  0.17678
E347  E   0.37500  0.80178  0.57322
E348  E   0.37500  0.94822  0.17678
E349  E   0.37500  0.94822  0.57322
E350  E   0.37500  0.98484  0.26516
E351  E   0.37500  0.98484  0.48484
E352  E   0.37500  0.98484  0.26516
E353  E   0.37500  0.98484  0.48484
E354  E   0.41161  0.02145  0.33839
E355  E   0.41161  0.02145  0.41161
E356  E   0.41161  0.12500  0.33839
E357  E   0.41161  0.12500  0.41161
E358  E   0.41161  0.12500  0.83839
E359  E   0.41161  0.12500  0.91161
E360  E   0.41161  0.22855  0.83839
E361  E   0.41161  0.22855  0.91161
E362  E   0.41161  0.33839  0.02145
E363  E   0.41161  0.33839  0.12500
E364  E   0.41161  0.33839  0.62500
E365  E   0.41161  0.33839  0.72855
E366  E   0.41161  0.41161  0.02145
E367  E   0.41161  0.41161  0.12500
E368  E   0.41161  0.41161  0.62500
E369  E   0.41161  0.41161  0.72855
E370  E   0.41161  0.52145  0.83839
E371  E   0.41161  0.52145  0.91161
E372  E   0.41161  0.62500  0.33839
E373  E   0.41161  0.62500  0.41161
E374  E   0.41161  0.62500  0.83839
E375  E   0.41161  0.62500  0.91161
E376  E   0.41161  0.72855  0.33839
E377  E   0.41161  0.72855  0.41161
E378  E   0.41161  0.83839  0.12500
E379  E   0.41161  0.83839  0.22855
E380  E   0.41161  0.83839  0.52145
E381  E   0.41161  0.83839  0.62500
E382  E   0.41161  0.91161  0.12500
E383  E   0.41161  0.91161  0.22855
E384  E   0.41161  0.91161  0.52145
E385  E   0.41161  0.91161  0.62500
E386  E   0.42678  0.05178  0.62500
E387  E   0.42678  0.12500  0.55178
E388  E   0.42678  0.12500  0.69822
E389  E   0.42678  0.19822  0.62500
E390  E   0.42678  0.55178  0.12500
E391  E   0.42678  0.62500  0.05178
E392  E   0.42678  0.62500  0.19822
E393  E   0.42678  0.69822  0.12500
E394  E   0.44822  0.07322  0.37500
E395  E   0.44822  0.17678  0.87500
E396  E   0.44822  0.37500  0.07322
E397  E   0.44822  0.37500  0.67678
E398  E   0.44822  0.57322  0.87500
E399  E   0.44822  0.67678  0.37500
E400  E   0.44822  0.87500  0.17678
E401  E   0.44822  0.87500  0.57322
E402  E   0.47855  0.08839  0.58839
E403  E   0.47855  0.08839  0.66161
E404  E   0.47855  0.16161  0.58839
E405  E   0.47855  0.16161  0.66161
E406  E   0.47855  0.58839  0.08839
E407  E   0.47855  0.58839  0.16161
E408  E   0.47855  0.66161  0.08839
E409  E   0.47855  0.66161  0.16161
E410  E   0.48484  0.26516  0.87500
E411  E   0.48484  0.37500  0.76516
E412  E   0.48484  0.37500  0.76516
E413  E   0.48484  0.37500  0.98484
E414  E   0.48484  0.37500  0.98484
E415  E   0.48484  0.48484  0.87500
E416  E   0.48484  0.76516  0.37500
E417  E   0.48484  0.76516  0.37500
E418  E   0.48484  0.87500  0.26516
E419  E   0.48484  0.87500  0.48484
E420  E   0.48484  0.98484  0.37500
E421  E   0.48484  0.98484  0.37500
E422  E   0.50000  0.12500  0.37500
E423  E   0.50000  0.12500  0.87500
E424  E   0.50000  0.37500  0.12500
E425  E   0.50000  0.37500  0.62500
E426  E   0.50000  0.62500  0.37500
E427  E   0.50000  0.62500  0.87500
E428  E   0.50000  0.87500  0.12500
E429  E   0.50000  0.87500  0.62500
E430  E   0.51516  0.01516  0.62500
E431  E   0.51516  0.12500  0.51516
E432  E   0.51516  0.12500  0.73484
E433  E   0.51516  0.23484  0.62500
E434  E   0.51516  0.51516  0.12500
E435  E   0.51516  0.62500  0.01516
E436  E   0.51516  0.62500  0.23484
E437  E   0.51516  0.73484  0.12500
E438  E   0.51516  0.01516  0.62500
E439  E   0.51516  0.12500  0.51516
E440  E   0.51516  0.12500  0.73484
E441  E   0.51516  0.23484  0.62500
E442  E   0.51516  0.51516  0.12500
E443  E   0.51516  0.62500  0.01516
E444  E   0.51516  0.62500  0.23484
E445  E   0.51516  0.73484  0.12500
E446  E   0.52145  0.33839  0.83839
E447  E   0.52145  0.33839  0.91161
E448  E   0.52145  0.41161  0.83839
E449  E   0.52145  0.41161  0.91161
E450  E   0.52145  0.83839  0.33839
E451  E   0.52145  0.83839  0.41161
E452  E   0.52145  0.91161  0.33839
E453  E   0.52145  0.91161  0.41161
E454  E   0.55178  0.12500  0.42678
E455  E   0.55178  0.12500  0.82322
E456  E   0.55178  0.32322  0.62500
E457  E   0.55178  0.42678  0.12500
E458  E   0.55178  0.62500  0.32322
E459  E   0.55178  0.62500  0.92678
E460  E   0.55178  0.82322  0.12500
E461  E   0.55178  0.92678  0.62500
E462  E   0.57322  0.30178  0.87500
E463  E   0.57322  0.37500  0.80178
E464  E   0.57322  0.37500  0.94822
E465  E   0.57322  0.44822  0.87500
E466  E   0.57322  0.80178  0.37500
E467  E   0.57322  0.87500  0.30178
E468  E   0.57322  0.87500  0.44822
E469  E   0.57322  0.94822  0.37500
E470  E   0.58839  0.08839  0.37500
E471  E   0.58839  0.08839  0.47855
E472  E   0.58839  0.08839  0.77145
E473  E   0.58839  0.08839  0.87500
E474  E   0.58839  0.16161  0.37500
E475  E   0.58839  0.16161  0.47855
E476  E   0.58839  0.16161  0.77145
E477  E   0.58839  0.16161  0.87500
E478  E   0.58839  0.27145  0.58839
E479  E   0.58839  0.27145  0.66161
E480  E   0.58839  0.37500  0.08839
E481  E   0.58839  0.37500  0.16161
E482  E   0.58839  0.37500  0.58839
E483  E   0.58839  0.37500  0.66161
E484  E   0.58839  0.47855  0.08839
E485  E   0.58839  0.47855  0.16161
E486  E   0.58839  0.58839  0.27145
E487  E   0.58839  0.58839  0.37500
E488  E   0.58839  0.58839  0.87500
E489  E   0.58839  0.58839  0.97855
E490  E   0.58839  0.66161  0.27145
E491  E   0.58839  0.66161  0.37500
E492  E   0.58839  0.66161  0.87500
E493  E   0.58839  0.66161  0.97855
E494  E   0.58839  0.77145  0.08839
E495  E   0.58839  0.77145  0.16161
E496  E   0.58839  0.87500  0.08839
E497  E   0.58839  0.87500  0.16161
E498  E   0.58839  0.87500  0.58839
E499  E   0.58839  0.87500  0.66161
E500  E   0.58839  0.97855  0.58839
E501  E   0.58839  0.97855  0.66161
E502  E   0.62500  0.00000  0.37500
E503  E   0.62500  0.00000  0.87500
E504  E   0.62500  0.01516  0.51516
E505  E   0.62500  0.01516  0.73484
E506  E   0.62500  0.01516  0.51516
E507  E   0.62500  0.01516  0.73484
E508  E   0.62500  0.05178  0.42678
E509  E   0.62500  0.05178  0.82322
E510  E   0.62500  0.19822  0.42678
E511  E   0.62500  0.19822  0.82322
E512  E   0.62500  0.23484  0.51516
E513  E   0.62500  0.23484  0.51516
E514  E   0.62500  0.23484  0.73484
E515  E   0.62500  0.23484  0.73484
E516  E   0.62500  0.25000  0.37500
E517  E   0.62500  0.25000  0.87500
E518  E   0.62500  0.32322  0.55178
E519  E   0.62500  0.32322  0.69822
E520  E   0.62500  0.33839  0.33839
E521  E   0.62500  0.33839  0.41161
E522  E   0.62500  0.33839  0.83839
E523  E   0.62500  0.33839  0.91161
E524  E   0.62500  0.37500  0.00000
E525  E   0.62500  0.37500  0.25000
E526  E   0.62500  0.37500  0.50000
E527  E   0.62500  0.37500  0.75000
E528  E   0.62500  0.41161  0.33839
E529  E   0.62500  0.41161  0.41161
E530  E   0.62500  0.41161  0.83839
E531  E   0.62500  0.41161  0.91161
E532  E   0.62500  0.42678  0.05178
E533  E   0.62500  0.42678  0.19822
E534  E   0.62500  0.50000  0.37500
E535  E   0.62500  0.50000  0.87500
E536  E   0.62500  0.51516  0.01516
E537  E   0.62500  0.51516  0.23484
E538  E   0.62500  0.51516  0.01516
E539  E   0.62500  0.51516  0.23484
E540  E   0.62500  0.55178  0.32322
E541  E   0.62500  0.55178  0.92678
E542  E   0.62500  0.69822  0.32322
E543  E   0.62500  0.69822  0.92678
E544  E   0.62500  0.73484  0.01516
E545  E   0.62500  0.73484  0.23484
E546  E   0.62500  0.73484  0.01516
E547  E   0.62500  0.73484  0.23484
E548  E   0.62500  0.75000  0.37500
E549  E   0.62500  0.75000  0.87500
E550  E   0.62500  0.82322  0.05178
E551  E   0.62500  0.82322  0.19822
E552  E   0.62500  0.83839  0.33839
E553  E   0.62500  0.83839  0.41161
E554  E   0.62500  0.83839  0.83839
E555  E   0.62500  0.83839  0.91161
E556  E   0.62500  0.87500  0.00000
E557  E   0.62500  0.87500  0.25000
E558  E   0.62500  0.87500  0.50000
E559  E   0.62500  0.87500  0.75000
E560  E   0.62500  0.91161  0.33839
E561  E   0.62500  0.91161  0.41161
E562  E   0.62500  0.91161  0.83839
E563  E   0.62500  0.91161  0.91161
E564  E   0.62500  0.92678  0.55178
E565  E   0.62500  0.92678  0.69822
E566  E   0.66161  0.08839  0.37500
E567  E   0.66161  0.08839  0.47855
E568  E   0.66161  0.08839  0.77145
E569  E   0.66161  0.08839  0.87500
E570  E   0.66161  0.16161  0.37500
E571  E   0.66161  0.16161  0.47855
E572  E   0.66161  0.16161  0.77145
E573  E   0.66161  0.16161  0.87500
E574  E   0.66161  0.27145  0.58839
E575  E   0.66161  0.27145  0.66161
E576  E   0.66161  0.37500  0.08839
E577  E   0.66161  0.37500  0.16161
E578  E   0.66161  0.37500  0.58839
E579  E   0.66161  0.37500  0.66161
E580  E   0.66161  0.47855  0.08839
E581  E   0.66161  0.47855  0.16161
E582  E   0.66161  0.58839  0.27145
E583  E   0.66161  0.58839  0.37500
E584  E   0.66161  0.58839  0.87500
E585  E   0.66161  0.58839  0.97855
E586  E   0.66161  0.66161  0.27145
E587  E   0.66161  0.66161  0.37500
E588  E   0.66161  0.66161  0.87500
E589  E   0.66161  0.66161  0.97855
E590  E   0.66161  0.77145  0.08839
E591  E   0.66161  0.77145  0.16161
E592  E   0.66161  0.87500  0.08839
E593  E   0.66161  0.87500  0.16161
E594  E   0.66161  0.87500  0.58839
E595  E   0.66161  0.87500  0.66161
E596  E   0.66161  0.97855  0.58839
E597  E   0.66161  0.97855  0.66161
E598  E   0.67678  0.30178  0.37500
E599  E   0.67678  0.37500  0.30178
E600  E   0.67678  0.37500  0.44822
E601  E   0.67678  0.44822  0.37500
E602  E   0.67678  0.80178  0.87500
E603  E   0.67678  0.87500  0.80178
E604  E   0.67678  0.87500  0.94822
E605  E   0.67678  0.94822  0.87500
E606  E   0.69822  0.12500  0.42678
E607  E   0.69822  0.12500  0.82322
E608  E   0.69822  0.32322  0.62500
E609  E   0.69822  0.42678  0.12500
E610  E   0.69822  0.62500  0.32322
E611  E   0.69822  0.62500  0.92678
E612  E   0.69822  0.82322  0.12500
E613  E   0.69822  0.92678  0.62500
E614  E   0.72855  0.33839  0.33839
E615  E   0.72855  0.33839  0.41161
E616  E   0.72855  0.41161  0.33839
E617  E   0.72855  0.41161  0.41161
E618  E   0.72855  0.83839  0.83839
E619  E   0.72855  0.83839  0.91161
E620  E   0.72855  0.91161  0.83839
E621  E   0.72855  0.91161  0.91161
E622  E   0.73484  0.01516  0.62500
E623  E   0.73484  0.12500  0.51516
E624  E   0.73484  0.12500  0.73484
E625  E   0.73484  0.23484  0.62500
E626  E   0.73484  0.51516  0.12500
E627  E   0.73484  0.62500  0.01516
E628  E   0.73484  0.62500  0.23484
E629  E   0.73484  0.73484  0.12500
E630  E   0.73484  0.01516  0.62500
E631  E   0.73484  0.12500  0.51516
E632  E   0.73484  0.12500  0.73484
E633  E   0.73484  0.23484  0.62500
E634  E   0.73484  0.51516  0.12500
E635  E   0.73484  0.62500  0.01516
E636  E   0.73484  0.62500  0.23484
E637  E   0.73484  0.73484  0.12500
E638  E   0.75000  0.12500  0.37500
E639  E   0.75000  0.12500  0.87500
E640  E   0.75000  0.37500  0.12500
E641  E   0.75000  0.37500  0.62500
E642  E   0.75000  0.62500  0.37500
E643  E   0.75000  0.62500  0.87500
E644  E   0.75000  0.87500  0.12500
E645  E   0.75000  0.87500  0.62500
E646  E   0.76516  0.26516  0.37500
E647  E   0.76516  0.37500  0.26516
E648  E   0.76516  0.37500  0.48484
E649  E   0.76516  0.48484  0.37500
E650  E   0.76516  0.76516  0.87500
E651  E   0.76516  0.87500  0.76516
E652  E   0.76516  0.87500  0.98484
E653  E   0.76516  0.98484  0.87500
E654  E   0.76516  0.26516  0.37500
E655  E   0.76516  0.37500  0.26516
E656  E   0.76516  0.37500  0.48484
E657  E   0.76516  0.48484  0.37500
E658  E   0.76516  0.76516  0.87500
E659  E   0.76516  0.87500  0.76516
E660  E   0.76516  0.87500  0.98484
E661  E   0.76516  0.98484  0.87500
E662  E   0.77145  0.08839  0.58839
E663  E   0.77145  0.08839  0.66161
E664  E   0.77145  0.16161  0.58839
E665  E   0.77145  0.16161  0.66161
E666  E   0.77145  0.58839  0.08839
E667  E   0.77145  0.58839  0.16161
E668  E   0.77145  0.66161  0.08839
E669  E   0.77145  0.66161  0.16161
E670  E   0.80178  0.07322  0.87500
E671  E   0.80178  0.17678  0.37500
E672  E   0.80178  0.37500  0.17678
E673  E   0.80178  0.37500  0.57322
E674  E   0.80178  0.57322  0.37500
E675  E   0.80178  0.67678  0.87500
E676  E   0.80178  0.87500  0.07322
E677  E   0.80178  0.87500  0.67678
E678  E   0.82322  0.05178  0.62500
E679  E   0.82322  0.12500  0.55178
E680  E   0.82322  0.12500  0.69822
E681  E   0.82322  0.19822  0.62500
E682  E   0.82322  0.55178  0.12500
E683  E   0.82322  0.62500  0.05178
E684  E   0.82322  0.62500  0.19822
E685  E   0.82322  0.69822  0.12500
E686  E   0.83839  0.02145  0.83839
E687  E   0.83839  0.02145  0.91161
E688  E   0.83839  0.12500  0.33839
E689  E   0.83839  0.12500  0.41161
E690  E   0.83839  0.12500  0.83839
E691  E   0.83839  0.12500  0.91161
E692  E   0.83839  0.22855  0.33839
E693  E   0.83839  0.22855  0.41161
E694  E   0.83839  0.33839  0.12500
E695  E   0.83839  0.33839  0.22855
E696  E   0.83839  0.33839  0.52145
E697  E   0.83839  0.33839  0.62500
E698  E   0.83839  0.41161  0.12500
E699  E   0.83839  0.41161  0.22855
E700  E   0.83839  0.41161  0.52145
E701  E   0.83839  0.41161  0.62500
E702  E   0.83839  0.52145  0.33839
E703  E   0.83839  0.52145  0.41161
E704  E   0.83839  0.62500  0.33839
E705  E   0.83839  0.62500  0.41161
E706  E   0.83839  0.62500  0.83839
E707  E   0.83839  0.62500  0.91161
E708  E   0.83839  0.72855  0.83839
E709  E   0.83839  0.72855  0.91161
E710  E   0.83839  0.83839  0.02145
E711  E   0.83839  0.83839  0.12500
E712  E   0.83839  0.83839  0.62500
E713  E   0.83839  0.83839  0.72855
E714  E   0.83839  0.91161  0.02145
E715  E   0.83839  0.91161  0.12500
E716  E   0.83839  0.91161  0.62500
E717  E   0.83839  0.91161  0.72855
E718  E   0.87500  0.00000  0.12500
E719  E   0.87500  0.00000  0.62500
E720  E   0.87500  0.07322  0.80178
E721  E   0.87500  0.07322  0.94822
E722  E   0.87500  0.08839  0.08839
E723  E   0.87500  0.08839  0.16161
E724  E   0.87500  0.08839  0.58839
E725  E   0.87500  0.08839  0.66161
E726  E   0.87500  0.12500  0.00000
E727  E   0.87500  0.12500  0.25000
E728  E   0.87500  0.12500  0.50000
E729  E   0.87500  0.12500  0.75000
E730  E   0.87500  0.16161  0.08839
E731  E   0.87500  0.16161  0.16161
E732  E   0.87500  0.16161  0.58839
E733  E   0.87500  0.16161  0.66161
E734  E   0.87500  0.17678  0.30178
E735  E   0.87500  0.17678  0.44822
E736  E   0.87500  0.25000  0.12500
E737  E   0.87500  0.25000  0.62500
E738  E   0.87500  0.26516  0.26516
E739  E   0.87500  0.26516  0.48484
E740  E   0.87500  0.30178  0.17678
E741  E   0.87500  0.30178  0.57322
E742  E   0.87500  0.44822  0.17678
E743  E   0.87500  0.44822  0.57322
E744  E   0.87500  0.48484  0.26516
E745  E   0.87500  0.48484  0.48484
E746  E   0.87500  0.50000  0.12500
E747  E   0.87500  0.50000  0.62500
E748  E   0.87500  0.57322  0.30178
E749  E   0.87500  0.57322  0.44822
E750  E   0.87500  0.58839  0.08839
E751  E   0.87500  0.58839  0.16161
E752  E   0.87500  0.58839  0.58839
E753  E   0.87500  0.58839  0.66161
E754  E   0.87500  0.62500  0.00000
E755  E   0.87500  0.62500  0.25000
E756  E   0.87500  0.62500  0.50000
E757  E   0.87500  0.62500  0.75000
E758  E   0.87500  0.66161  0.08839
E759  E   0.87500  0.66161  0.16161
E760  E   0.87500  0.66161  0.58839
E761  E   0.87500  0.66161  0.66161
E762  E   0.87500  0.67678  0.80178
E763  E   0.87500  0.67678  0.94822
E764  E   0.87500  0.75000  0.12500
E765  E   0.87500  0.75000  0.62500
E766  E   0.87500  0.76516  0.76516
E767  E   0.87500  0.76516  0.98484
E768  E   0.87500  0.76516  0.76516
E769  E   0.87500  0.76516  0.98484
E770  E   0.87500  0.80178  0.07322
E771  E   0.87500  0.80178  0.67678
E772  E   0.87500  0.94822  0.07322
E773  E   0.87500  0.94822  0.67678
E774  E   0.87500  0.98484  0.76516
E775  E   0.87500  0.98484  0.98484
E776  E   0.87500  0.98484  0.76516
E777  E   0.87500  0.98484  0.98484
E778  E   0.91161  0.02145  0.83839
E779  E   0.91161  0.02145  0.91161
E780  E   0.91161  0.12500  0.33839
E781  E   0.91161  0.12500  0.41161
E782  E   0.91161  0.12500  0.83839
E783  E   0.91161  0.12500  0.91161
E784  E   0.91161  0.22855  0.33839
E785  E   0.91161  0.22855  0.41161
E786  E   0.91161  0.33839  0.12500
E787  E   0.91161  0.33839  0.22855
E788  E   0.91161  0.33839  0.52145
E789  E   0.91161  0.33839  0.62500
E790  E   0.91161  0.41161  0.12500
E791  E   0.91161  0.41161  0.22855
E792  E   0.91161  0.41161  0.52145
E793  E   0.91161  0.41161  0.62500
E794  E   0.91161  0.52145  0.33839
E795  E   0.91161  0.52145  0.41161
E796  E   0.91161  0.62500  0.33839
E797  E   0.91161  0.62500  0.41161
E798  E   0.91161  0.62500  0.83839
E799  E   0.91161  0.62500  0.91161
E800  E   0.91161  0.72855  0.83839
E801  E   0.91161  0.72855  0.91161
E802  E   0.91161  0.83839  0.02145
E803  E   0.91161  0.83839  0.12500
E804  E   0.91161  0.83839  0.62500
E805  E   0.91161  0.83839  0.72855
E806  E   0.91161  0.91161  0.02145
E807  E   0.91161  0.91161  0.12500
E808  E   0.91161  0.91161  0.62500
E809  E   0.91161  0.91161  0.72855
E810  E   0.92678  0.05178  0.12500
E811  E   0.92678  0.12500  0.05178
E812  E   0.92678  0.12500  0.19822
E813  E   0.92678  0.19822  0.12500
E814  E   0.92678  0.55178  0.62500
E815  E   0.92678  0.62500  0.55178
E816  E   0.92678  0.62500  0.69822
E817  E   0.92678  0.69822  0.62500
E818  E   0.94822  0.07322  0.87500
E819  E   0.94822  0.17678  0.37500
E820  E   0.94822  0.37500  0.17678
E821  E   0.94822  0.37500  0.57322
E822  E   0.94822  0.57322  0.37500
E823  E   0.94822  0.67678  0.87500
E824  E   0.94822  0.87500  0.07322
E825  E   0.94822  0.87500  0.67678
E826  E   0.97855  0.08839  0.08839
E827  E   0.97855  0.08839  0.16161
E828  E   0.97855  0.16161  0.08839
E829  E   0.97855  0.16161  0.16161
E830  E   0.97855  0.58839  0.58839
E831  E   0.97855  0.58839  0.66161
E832  E   0.97855  0.66161  0.58839
E833  E   0.97855  0.66161  0.66161
E834  E   0.98484  0.26516  0.37500
E835  E   0.98484  0.37500  0.26516
E836  E   0.98484  0.37500  0.48484
E837  E   0.98484  0.48484  0.37500
E838  E   0.98484  0.76516  0.87500
E839  E   0.98484  0.87500  0.76516
E840  E   0.98484  0.87500  0.98484
E841  E   0.98484  0.98484  0.87500
E842  E   0.98484  0.26516  0.37500
E843  E   0.98484  0.37500  0.26516
E844  E   0.98484  0.37500  0.48484
E845  E   0.98484  0.48484  0.37500
E846  E   0.98484  0.76516  0.87500
E847  E   0.98484  0.87500  0.76516
E848  E   0.98484  0.87500  0.98484
E849  E   0.98484  0.98484  0.87500
loop_
