data_fvb_P-3m1  hall_number: 456, V_con: 4, EC_con: 4
_audit_creation_date              2025-03-06
_audit_creation_method            'MOFbuilder_1.0'
_symmetry_space_group_name_H-M    'P1'
_symmetry_Int_Tables_number       1
_symmetry_cell_setting            triclinic
loop_
_symmetry_equiv_pos_as_xyz
  x,y,z
_cell_length_a                    41.5965
_cell_length_b                    41.5965
_cell_length_c                    32.2838
_cell_angle_alpha                 90.0
_cell_angle_beta                  90.0
_cell_angle_gamma                 120.0
loop_
_atom_site_label
_atom_site_type_symbol
_atom_site_fract_x
_atom_site_fract_y
_atom_site_fract_z
V1    V   0.09293  0.42626  0.11504
V2    V   0.09293  0.66667  0.11504
V3    V   0.33333  0.42626  0.11504
V4    V   0.33333  0.90707  0.11504
V5    V   0.42626  0.09293  0.88496
V6    V   0.42626  0.33333  0.88496
V7    V   0.57374  0.66667  0.11504
V8    V   0.57374  0.90707  0.11504
V9    V   0.66667  0.09293  0.88496
V10   V   0.66667  0.57374  0.88496
V11   V   0.90707  0.33333  0.88496
V12   V   0.90707  0.57374  0.88496
EC1    EC   0.00000  0.24041  0.34512
EC2    EC   0.00000  0.24041  0.65488
EC3    EC   0.00000  0.75959  0.34512
EC4    EC   0.00000  0.75959  0.65488
EC5    EC   0.24041  0.00000  0.34512
EC6    EC   0.24041  0.00000  0.65488
EC7    EC   0.24041  0.24041  0.34512
EC8    EC   0.24041  0.24041  0.65488
EC9    EC   0.75959  0.00000  0.34512
EC10   EC   0.75959  0.00000  0.65488
EC11   EC   0.75959  0.75959  0.34512
EC12   EC   0.75959  0.75959  0.65488
E1    E   0.00000  0.24040  0.50000
E2    E   0.00000  0.37980  0.00000
E3    E   0.00000  0.62020  0.00000
E4    E   0.00000  0.75960  0.50000
E5    E   0.04646  0.33333  0.23008
E6    E   0.04646  0.71313  0.23008
E7    E   0.09293  0.54646  0.11504
E8    E   0.09293  0.54647  0.11504
E9    E   0.12020  0.24040  0.34512
E10   E   0.12020  0.24041  0.65488
E11   E   0.12020  0.87979  0.65488
E12   E   0.12020  0.87980  0.34512
E13   E   0.12021  0.24041  0.65488
E14   E   0.12021  0.87980  0.65488
E15   E   0.21313  0.42626  0.11504
E16   E   0.21313  0.78687  0.11504
E17   E   0.24040  0.00000  0.50000
E18   E   0.24040  0.12020  0.65488
E19   E   0.24040  0.24040  0.50000
E20   E   0.24041  0.12020  0.34512
E21   E   0.24041  0.12021  0.34512
E22   E   0.28687  0.33333  0.23008
E23   E   0.28687  0.95354  0.23008
E24   E   0.33333  0.04646  0.76992
E25   E   0.33333  0.28687  0.76992
E26   E   0.37980  0.00000  0.00000
E27   E   0.37980  0.37980  0.00000
E28   E   0.42626  0.21313  0.88496
E29   E   0.45353  0.54646  0.11504
E30   E   0.45353  0.90707  0.11504
E31   E   0.45354  0.54647  0.11504
E32   E   0.45354  0.90707  0.11504
E33   E   0.54646  0.09293  0.88496
E34   E   0.54646  0.45353  0.88496
E35   E   0.54647  0.09293  0.88496
E36   E   0.54647  0.45354  0.88496
E37   E   0.57374  0.78687  0.11504
E38   E   0.62020  0.00000  0.00000
E39   E   0.62020  0.62020  0.00000
E40   E   0.66667  0.71313  0.23008
E41   E   0.66667  0.95354  0.23008
E42   E   0.71313  0.04646  0.76992
E43   E   0.71313  0.66667  0.76992
E44   E   0.75959  0.87979  0.65488
E45   E   0.75959  0.87980  0.65488
E46   E   0.75960  0.00000  0.50000
E47   E   0.75960  0.75960  0.50000
E48   E   0.75960  0.87980  0.34512
E49   E   0.78687  0.21313  0.88496
E50   E   0.78687  0.57374  0.88496
E51   E   0.87979  0.12020  0.34512
E52   E   0.87979  0.75959  0.34512
E53   E   0.87980  0.12020  0.65488
E54   E   0.87980  0.12021  0.34512
E55   E   0.87980  0.75959  0.34512
E56   E   0.87980  0.75960  0.65488
E57   E   0.90707  0.45353  0.88496
E58   E   0.90707  0.45354  0.88496
E59   E   0.95354  0.28687  0.76992
E60   E   0.95354  0.66667  0.76992
loop_
