data_fvh_Im-3  hall_number: 500, V_con: 4, EC_con: 4
_audit_creation_date              2025-03-06
_audit_creation_method            'MOFbuilder_1.0'
_symmetry_space_group_name_H-M    'P1'
_symmetry_Int_Tables_number       1
_symmetry_cell_setting            triclinic
loop_
_symmetry_equiv_pos_as_xyz
  x,y,z
_cell_length_a                    53.0258
_cell_length_b                    53.0258
_cell_length_c                    53.0258
_cell_angle_alpha                 90.0
_cell_angle_beta                  90.0
_cell_angle_gamma                 90.0
loop_
_atom_site_label
_atom_site_type_symbol
_atom_site_fract_x
_atom_site_fract_y
_atom_site_fract_z
V1    V   0.00000  0.40571  0.09429
V2    V   0.00000  0.40571  0.90571
V3    V   0.00000  0.59429  0.09429
V4    V   0.00000  0.59429  0.90571
V5    V   0.09429  0.40571  0.50000
V6    V   0.09429  0.59429  0.50000
V7    V   0.09429  0.00000  0.40571
V8    V   0.09429  0.00000  0.59429
V9    V   0.40571  0.09429  0.00000
V10   V   0.40571  0.50000  0.09429
V11   V   0.40571  0.50000  0.90571
V12   V   0.40571  0.90571  0.00000
V13   V   0.50000  0.09429  0.40571
V14   V   0.50000  0.09429  0.59429
V15   V   0.50000  0.90571  0.40571
V16   V   0.50000  0.90571  0.59429
V17   V   0.59429  0.09429  0.00000
V18   V   0.59429  0.50000  0.09429
V19   V   0.59429  0.50000  0.90571
V20   V   0.59429  0.90571  0.00000
V21   V   0.90571  0.00000  0.40571
V22   V   0.90571  0.00000  0.59429
V23   V   0.90571  0.40571  0.50000
V24   V   0.90571  0.59429  0.50000
EC1    EC   0.09429  0.30571  0.34011
EC2    EC   0.09429  0.30571  0.65989
EC3    EC   0.09429  0.69429  0.34011
EC4    EC   0.09429  0.69429  0.65989
EC5    EC   0.15989  0.40571  0.19429
EC6    EC   0.15989  0.40571  0.80571
EC7    EC   0.15989  0.59429  0.19429
EC8    EC   0.15989  0.59429  0.80571
EC9    EC   0.19429  0.15989  0.40571
EC10   EC   0.19429  0.15989  0.59429
EC11   EC   0.19429  0.84011  0.40571
EC12   EC   0.19429  0.84011  0.59429
EC13   EC   0.30571  0.34011  0.09429
EC14   EC   0.30571  0.34011  0.90571
EC15   EC   0.30571  0.65989  0.09429
EC16   EC   0.30571  0.65989  0.90571
EC17   EC   0.34011  0.09429  0.30571
EC18   EC   0.34011  0.09429  0.69429
EC19   EC   0.34011  0.90571  0.30571
EC20   EC   0.34011  0.90571  0.69429
EC21   EC   0.40571  0.19429  0.15989
EC22   EC   0.40571  0.19429  0.84011
EC23   EC   0.40571  0.80571  0.15989
EC24   EC   0.40571  0.80571  0.84011
EC25   EC   0.59429  0.19429  0.15989
EC26   EC   0.59429  0.19429  0.84011
EC27   EC   0.59429  0.80571  0.15989
EC28   EC   0.59429  0.80571  0.84011
EC29   EC   0.65989  0.09429  0.30571
EC30   EC   0.65989  0.09429  0.69429
EC31   EC   0.65989  0.90571  0.30571
EC32   EC   0.65989  0.90571  0.69429
EC33   EC   0.69429  0.34011  0.09429
EC34   EC   0.69429  0.34011  0.90571
EC35   EC   0.69429  0.65989  0.09429
EC36   EC   0.69429  0.65989  0.90571
EC37   EC   0.80571  0.15989  0.40571
EC38   EC   0.80571  0.15989  0.59429
EC39   EC   0.80571  0.84011  0.40571
EC40   EC   0.80571  0.84011  0.59429
EC41   EC   0.84011  0.40571  0.19429
EC42   EC   0.84011  0.40571  0.80571
EC43   EC   0.84011  0.59429  0.19429
EC44   EC   0.84011  0.59429  0.80571
EC45   EC   0.90571  0.30571  0.34011
EC46   EC   0.90571  0.30571  0.65989
EC47   EC   0.90571  0.69429  0.34011
EC48   EC   0.90571  0.69429  0.65989
E1    E   0.00000  0.00000  0.40571
E2    E   0.00000  0.00000  0.59429
E3    E   0.00000  0.30571  0.34011
E4    E   0.00000  0.30571  0.65989
E5    E   0.00000  0.40571  0.00000
E6    E   0.00000  0.40571  0.50000
E7    E   0.00000  0.50000  0.09429
E8    E   0.00000  0.50000  0.90571
E9    E   0.00000  0.59429  0.00000
E10   E   0.00000  0.59429  0.50000
E11   E   0.00000  0.69429  0.34011
E12   E   0.00000  0.69429  0.65989
E13   E   0.07995  0.40571  0.14429
E14   E   0.07995  0.40571  0.85571
E15   E   0.07995  0.59429  0.14429
E16   E   0.07995  0.59429  0.85571
E17   E   0.09429  0.35571  0.42005
E18   E   0.09429  0.35571  0.57995
E19   E   0.09429  0.50000  0.50000
E20   E   0.09429  0.64429  0.42005
E21   E   0.09429  0.64429  0.57995
E22   E   0.09429  0.00000  0.50000
E23   E   0.12709  0.35571  0.26720
E24   E   0.12709  0.35571  0.73280
E25   E   0.12709  0.64429  0.26720
E26   E   0.12709  0.64429  0.73280
E27   E   0.14429  0.23280  0.37291
E28   E   0.14429  0.23280  0.62709
E29   E   0.14429  0.76720  0.37291
E30   E   0.14429  0.76720  0.62709
E31   E   0.14429  0.07995  0.40571
E32   E   0.14429  0.07995  0.59429
E33   E   0.14429  0.92005  0.40571
E34   E   0.14429  0.92005  0.59429
E35   E   0.15989  0.50000  0.19429
E36   E   0.15989  0.50000  0.80571
E37   E   0.19429  0.15989  0.50000
E38   E   0.19429  0.84011  0.50000
E39   E   0.23280  0.37291  0.14429
E40   E   0.23280  0.37291  0.85571
E41   E   0.23280  0.62709  0.14429
E42   E   0.23280  0.62709  0.85571
E43   E   0.26720  0.12709  0.35571
E44   E   0.26720  0.12709  0.64429
E45   E   0.26720  0.87291  0.35571
E46   E   0.26720  0.87291  0.64429
E47   E   0.30571  0.34011  0.00000
E48   E   0.30571  0.65989  0.00000
E49   E   0.34011  0.00000  0.30571
E50   E   0.34011  0.00000  0.69429
E51   E   0.35571  0.42005  0.09429
E52   E   0.35571  0.42005  0.90571
E53   E   0.35571  0.57995  0.09429
E54   E   0.35571  0.57995  0.90571
E55   E   0.35571  0.26720  0.12709
E56   E   0.35571  0.26720  0.87291
E57   E   0.35571  0.73280  0.12709
E58   E   0.35571  0.73280  0.87291
E59   E   0.37291  0.14429  0.23280
E60   E   0.37291  0.14429  0.76720
E61   E   0.37291  0.85571  0.23280
E62   E   0.37291  0.85571  0.76720
E63   E   0.40571  0.00000  0.00000
E64   E   0.40571  0.14429  0.07995
E65   E   0.40571  0.14429  0.92005
E66   E   0.40571  0.50000  0.00000
E67   E   0.40571  0.85571  0.07995
E68   E   0.40571  0.85571  0.92005
E69   E   0.42005  0.09429  0.35571
E70   E   0.42005  0.09429  0.64429
E71   E   0.42005  0.90571  0.35571
E72   E   0.42005  0.90571  0.64429
E73   E   0.50000  0.00000  0.40571
E74   E   0.50000  0.00000  0.59429
E75   E   0.50000  0.09429  0.50000
E76   E   0.50000  0.09429  0.00000
E77   E   0.50000  0.19429  0.15989
E78   E   0.50000  0.19429  0.84011
E79   E   0.50000  0.50000  0.09429
E80   E   0.50000  0.50000  0.90571
E81   E   0.50000  0.80571  0.15989
E82   E   0.50000  0.80571  0.84011
E83   E   0.50000  0.90571  0.00000
E84   E   0.50000  0.90571  0.50000
E85   E   0.57995  0.09429  0.35571
E86   E   0.57995  0.09429  0.64429
E87   E   0.57995  0.90571  0.35571
E88   E   0.57995  0.90571  0.64429
E89   E   0.59429  0.00000  0.00000
E90   E   0.59429  0.14429  0.07995
E91   E   0.59429  0.14429  0.92005
E92   E   0.59429  0.50000  0.00000
E93   E   0.59429  0.85571  0.07995
E94   E   0.59429  0.85571  0.92005
E95   E   0.62709  0.14429  0.23280
E96   E   0.62709  0.14429  0.76720
E97   E   0.62709  0.85571  0.23280
E98   E   0.62709  0.85571  0.76720
E99   E   0.64429  0.26720  0.12709
E100  E   0.64429  0.26720  0.87291
E101  E   0.64429  0.42005  0.09429
E102  E   0.64429  0.42005  0.90571
E103  E   0.64429  0.57995  0.09429
E104  E   0.64429  0.57995  0.90571
E105  E   0.64429  0.73280  0.12709
E106  E   0.64429  0.73280  0.87291
E107  E   0.65989  0.00000  0.30571
E108  E   0.65989  0.00000  0.69429
E109  E   0.69429  0.34011  0.00000
E110  E   0.69429  0.65989  0.00000
E111  E   0.73280  0.12709  0.35571
E112  E   0.73280  0.12709  0.64429
E113  E   0.73280  0.87291  0.35571
E114  E   0.73280  0.87291  0.64429
E115  E   0.76720  0.37291  0.14429
E116  E   0.76720  0.37291  0.85571
E117  E   0.76720  0.62709  0.14429
E118  E   0.76720  0.62709  0.85571
E119  E   0.80571  0.15989  0.50000
E120  E   0.80571  0.84011  0.50000
E121  E   0.84011  0.50000  0.19429
E122  E   0.84011  0.50000  0.80571
E123  E   0.85571  0.07995  0.40571
E124  E   0.85571  0.07995  0.59429
E125  E   0.85571  0.23280  0.37291
E126  E   0.85571  0.23280  0.62709
E127  E   0.85571  0.76720  0.37291
E128  E   0.85571  0.76720  0.62709
E129  E   0.85571  0.92005  0.40571
E130  E   0.85571  0.92005  0.59429
E131  E   0.87291  0.35571  0.26720
E132  E   0.87291  0.35571  0.73280
E133  E   0.87291  0.64429  0.26720
E134  E   0.87291  0.64429  0.73280
E135  E   0.90571  0.00000  0.50000
E136  E   0.90571  0.35571  0.42005
E137  E   0.90571  0.35571  0.57995
E138  E   0.90571  0.50000  0.50000
E139  E   0.90571  0.64429  0.42005
E140  E   0.90571  0.64429  0.57995
E141  E   0.92005  0.40571  0.14429
E142  E   0.92005  0.40571  0.85571
E143  E   0.92005  0.59429  0.14429
E144  E   0.92005  0.59429  0.85571
loop_
