data_fvq_Pn-3m:2  hall_number: 522, V_con: 4, EC_con: 4
_audit_creation_date              2025-03-06
_audit_creation_method            'MOFbuilder_1.0'
_symmetry_space_group_name_H-M    'P1'
_symmetry_Int_Tables_number       1
_symmetry_cell_setting            triclinic
loop_
_symmetry_equiv_pos_as_xyz
  x,y,z
_cell_length_a                    56.2023
_cell_length_b                    56.2023
_cell_length_c                    56.2023
_cell_angle_alpha                 90.0
_cell_angle_beta                  90.0
_cell_angle_gamma                 90.0
loop_
_atom_site_label
_atom_site_type_symbol
_atom_site_fract_x
_atom_site_fract_y
_atom_site_fract_z
V1    V   0.00163  0.62419  0.75000
V2    V   0.00163  0.75000  0.62419
V3    V   0.00163  0.75000  0.87581
V4    V   0.00163  0.87581  0.75000
V5    V   0.12419  0.25000  0.50163
V6    V   0.12419  0.25000  0.99837
V7    V   0.12419  0.50163  0.25000
V8    V   0.12419  0.99837  0.25000
V9    V   0.25000  0.12419  0.50163
V10   V   0.25000  0.12419  0.99837
V11   V   0.25000  0.37581  0.50163
V12   V   0.25000  0.37581  0.99837
V13   V   0.25000  0.50163  0.12419
V14   V   0.25000  0.50163  0.37581
V15   V   0.25000  0.99837  0.12419
V16   V   0.25000  0.99837  0.37581
V17   V   0.37581  0.25000  0.50163
V18   V   0.37581  0.25000  0.99837
V19   V   0.37581  0.50163  0.25000
V20   V   0.37581  0.99837  0.25000
V21   V   0.49837  0.62419  0.75000
V22   V   0.49837  0.75000  0.62419
V23   V   0.49837  0.75000  0.87581
V24   V   0.49837  0.87581  0.75000
V25   V   0.50163  0.12419  0.25000
V26   V   0.50163  0.25000  0.12419
V27   V   0.50163  0.25000  0.37581
V28   V   0.50163  0.37581  0.25000
V29   V   0.62419  0.00163  0.75000
V30   V   0.62419  0.49837  0.75000
V31   V   0.62419  0.75000  0.00163
V32   V   0.62419  0.75000  0.49837
V33   V   0.75000  0.00163  0.62419
V34   V   0.75000  0.00163  0.87581
V35   V   0.75000  0.49837  0.62419
V36   V   0.75000  0.49837  0.87581
V37   V   0.75000  0.62419  0.00163
V38   V   0.75000  0.62419  0.49837
V39   V   0.75000  0.87581  0.00163
V40   V   0.75000  0.87581  0.49837
V41   V   0.87581  0.00163  0.75000
V42   V   0.87581  0.49837  0.75000
V43   V   0.87581  0.75000  0.00163
V44   V   0.87581  0.75000  0.49837
V45   V   0.99837  0.12419  0.25000
V46   V   0.99837  0.25000  0.12419
V47   V   0.99837  0.25000  0.37581
V48   V   0.99837  0.37581  0.25000
EC1    EC   0.08440  0.21021  0.82957
EC2    EC   0.08440  0.28979  0.67043
EC3    EC   0.08440  0.67043  0.28979
EC4    EC   0.08440  0.82957  0.21021
EC5    EC   0.17043  0.58440  0.71021
EC6    EC   0.17043  0.71021  0.58440
EC7    EC   0.17043  0.78979  0.91560
EC8    EC   0.17043  0.91560  0.78979
EC9    EC   0.21021  0.08440  0.82957
EC10   EC   0.21021  0.41560  0.67043
EC11   EC   0.21021  0.67043  0.41560
EC12   EC   0.21021  0.82957  0.08440
EC13   EC   0.28979  0.08440  0.67043
EC14   EC   0.28979  0.41560  0.82957
EC15   EC   0.28979  0.67043  0.08440
EC16   EC   0.28979  0.82957  0.41560
EC17   EC   0.32957  0.58440  0.78979
EC18   EC   0.32957  0.71021  0.91560
EC19   EC   0.32957  0.78979  0.58440
EC20   EC   0.32957  0.91560  0.71021
EC21   EC   0.41560  0.21021  0.67043
EC22   EC   0.41560  0.28979  0.82957
EC23   EC   0.41560  0.67043  0.21021
EC24   EC   0.41560  0.82957  0.28979
EC25   EC   0.58440  0.17043  0.71021
EC26   EC   0.58440  0.32957  0.78979
EC27   EC   0.58440  0.71021  0.17043
EC28   EC   0.58440  0.78979  0.32957
EC29   EC   0.67043  0.08440  0.28979
EC30   EC   0.67043  0.21021  0.41560
EC31   EC   0.67043  0.28979  0.08440
EC32   EC   0.67043  0.41560  0.21021
EC33   EC   0.71021  0.17043  0.58440
EC34   EC   0.71021  0.32957  0.91560
EC35   EC   0.71021  0.58440  0.17043
EC36   EC   0.71021  0.91560  0.32957
EC37   EC   0.78979  0.17043  0.91560
EC38   EC   0.78979  0.32957  0.58440
EC39   EC   0.78979  0.58440  0.32957
EC40   EC   0.78979  0.91560  0.17043
EC41   EC   0.82957  0.08440  0.21021
EC42   EC   0.82957  0.21021  0.08440
EC43   EC   0.82957  0.28979  0.41560
EC44   EC   0.82957  0.41560  0.28979
EC45   EC   0.91560  0.17043  0.78979
EC46   EC   0.91560  0.32957  0.71021
EC47   EC   0.91560  0.71021  0.32957
EC48   EC   0.91560  0.78979  0.17043
E1    E   0.00000  0.19032  0.80968
E2    E   0.00000  0.19032  0.80968
E3    E   0.00000  0.30968  0.69032
E4    E   0.00000  0.30968  0.69032
E5    E   0.00000  0.69032  0.30968
E6    E   0.00000  0.69032  0.30968
E7    E   0.00000  0.80968  0.19032
E8    E   0.00000  0.80968  0.19032
E9    E   0.00163  0.68709  0.68709
E10   E   0.00163  0.68709  0.81291
E11   E   0.00163  0.81291  0.68709
E12   E   0.00163  0.81291  0.81291
E13   E   0.06128  0.06128  0.25000
E14   E   0.06128  0.25000  0.06128
E15   E   0.06128  0.25000  0.43872
E16   E   0.06128  0.43872  0.25000
E17   E   0.08440  0.25000  0.75000
E18   E   0.08440  0.75000  0.25000
E19   E   0.08603  0.60429  0.73011
E20   E   0.08603  0.73011  0.60429
E21   E   0.08603  0.76989  0.89571
E22   E   0.08603  0.89571  0.76989
E23   E   0.10429  0.23011  0.91397
E24   E   0.10429  0.26989  0.58603
E25   E   0.10429  0.58603  0.26989
E26   E   0.10429  0.91397  0.23011
E27   E   0.14731  0.14731  0.82957
E28   E   0.14731  0.35269  0.67043
E29   E   0.14731  0.67043  0.35269
E30   E   0.14731  0.82957  0.14731
E31   E   0.17043  0.64731  0.64731
E32   E   0.17043  0.85269  0.85269
E33   E   0.18709  0.18709  0.99837
E34   E   0.18709  0.31291  0.50163
E35   E   0.18709  0.50163  0.31291
E36   E   0.18709  0.99837  0.18709
E37   E   0.18709  0.18709  0.99837
E38   E   0.18709  0.18709  0.50163
E39   E   0.18709  0.31291  0.50163
E40   E   0.18709  0.31291  0.99837
E41   E   0.18709  0.50163  0.18709
E42   E   0.18709  0.50163  0.31291
E43   E   0.18709  0.99837  0.18709
E44   E   0.18709  0.99837  0.31291
E45   E   0.19032  0.00000  0.80968
E46   E   0.19032  0.50000  0.69032
E47   E   0.19032  0.69032  0.50000
E48   E   0.19032  0.80968  0.00000
E49   E   0.19032  0.00000  0.80968
E50   E   0.19032  0.50000  0.69032
E51   E   0.19032  0.69032  0.50000
E52   E   0.19032  0.80968  0.00000
E53   E   0.23011  0.10429  0.91397
E54   E   0.23011  0.39571  0.58603
E55   E   0.23011  0.58603  0.39571
E56   E   0.23011  0.91397  0.10429
E57   E   0.25000  0.06128  0.06128
E58   E   0.25000  0.06128  0.43872
E59   E   0.25000  0.08440  0.75000
E60   E   0.25000  0.41560  0.75000
E61   E   0.25000  0.43872  0.06128
E62   E   0.25000  0.43872  0.43872
E63   E   0.25000  0.58440  0.75000
E64   E   0.25000  0.75000  0.08440
E65   E   0.25000  0.75000  0.41560
E66   E   0.25000  0.75000  0.58440
E67   E   0.25000  0.75000  0.91560
E68   E   0.25000  0.91560  0.75000
E69   E   0.26989  0.10429  0.58603
E70   E   0.26989  0.39571  0.91397
E71   E   0.26989  0.58603  0.10429
E72   E   0.26989  0.91397  0.39571
E73   E   0.30968  0.00000  0.69032
E74   E   0.30968  0.50000  0.80968
E75   E   0.30968  0.69032  0.00000
E76   E   0.30968  0.80968  0.50000
E77   E   0.30968  0.00000  0.69032
E78   E   0.30968  0.50000  0.80968
E79   E   0.30968  0.69032  0.00000
E80   E   0.30968  0.80968  0.50000
E81   E   0.31291  0.18709  0.50163
E82   E   0.31291  0.18709  0.50163
E83   E   0.31291  0.18709  0.99837
E84   E   0.31291  0.31291  0.50163
E85   E   0.31291  0.31291  0.99837
E86   E   0.31291  0.50163  0.18709
E87   E   0.31291  0.50163  0.18709
E88   E   0.31291  0.50163  0.31291
E89   E   0.31291  0.99837  0.18709
E90   E   0.31291  0.99837  0.31291
E91   E   0.32957  0.64731  0.85269
E92   E   0.32957  0.85269  0.64731
E93   E   0.35269  0.14731  0.67043
E94   E   0.35269  0.35269  0.82957
E95   E   0.35269  0.67043  0.14731
E96   E   0.35269  0.82957  0.35269
E97   E   0.39571  0.23011  0.58603
E98   E   0.39571  0.26989  0.91397
E99   E   0.39571  0.58603  0.23011
E100  E   0.39571  0.91397  0.26989
E101  E   0.41397  0.60429  0.76989
E102  E   0.41397  0.73011  0.89571
E103  E   0.41397  0.76989  0.60429
E104  E   0.41397  0.89571  0.73011
E105  E   0.41560  0.25000  0.75000
E106  E   0.41560  0.75000  0.25000
E107  E   0.43872  0.06128  0.25000
E108  E   0.43872  0.25000  0.06128
E109  E   0.43872  0.25000  0.43872
E110  E   0.43872  0.43872  0.25000
E111  E   0.49837  0.68709  0.68709
E112  E   0.49837  0.68709  0.81291
E113  E   0.49837  0.81291  0.68709
E114  E   0.49837  0.81291  0.81291
E115  E   0.50000  0.19032  0.69032
E116  E   0.50000  0.19032  0.69032
E117  E   0.50000  0.30968  0.80968
E118  E   0.50000  0.30968  0.80968
E119  E   0.50000  0.69032  0.19032
E120  E   0.50000  0.69032  0.19032
E121  E   0.50000  0.80968  0.30968
E122  E   0.50000  0.80968  0.30968
E123  E   0.50163  0.18709  0.31291
E124  E   0.50163  0.18709  0.18709
E125  E   0.50163  0.18709  0.31291
E126  E   0.50163  0.31291  0.18709
E127  E   0.50163  0.31291  0.18709
E128  E   0.50163  0.31291  0.31291
E129  E   0.56128  0.56128  0.75000
E130  E   0.56128  0.75000  0.56128
E131  E   0.56128  0.75000  0.93872
E132  E   0.56128  0.93872  0.75000
E133  E   0.58440  0.25000  0.75000
E134  E   0.58440  0.75000  0.25000
E135  E   0.58603  0.10429  0.26989
E136  E   0.58603  0.23011  0.39571
E137  E   0.58603  0.26989  0.10429
E138  E   0.58603  0.39571  0.23011
E139  E   0.60429  0.08603  0.73011
E140  E   0.60429  0.41397  0.76989
E141  E   0.60429  0.73011  0.08603
E142  E   0.60429  0.76989  0.41397
E143  E   0.64731  0.17043  0.64731
E144  E   0.64731  0.32957  0.85269
E145  E   0.64731  0.64731  0.17043
E146  E   0.64731  0.85269  0.32957
E147  E   0.67043  0.14731  0.35269
E148  E   0.67043  0.35269  0.14731
E149  E   0.68709  0.00163  0.68709
E150  E   0.68709  0.00163  0.81291
E151  E   0.68709  0.49837  0.68709
E152  E   0.68709  0.49837  0.81291
E153  E   0.68709  0.68709  0.00163
E154  E   0.68709  0.68709  0.49837
E155  E   0.68709  0.81291  0.00163
E156  E   0.68709  0.81291  0.49837
E157  E   0.69032  0.00000  0.30968
E158  E   0.69032  0.00000  0.30968
E159  E   0.69032  0.19032  0.50000
E160  E   0.69032  0.19032  0.50000
E161  E   0.69032  0.30968  0.00000
E162  E   0.69032  0.30968  0.00000
E163  E   0.69032  0.50000  0.19032
E164  E   0.69032  0.50000  0.19032
E165  E   0.73011  0.08603  0.60429
E166  E   0.73011  0.41397  0.89571
E167  E   0.73011  0.60429  0.08603
E168  E   0.73011  0.89571  0.41397
E169  E   0.75000  0.08440  0.25000
E170  E   0.75000  0.25000  0.08440
E171  E   0.75000  0.25000  0.41560
E172  E   0.75000  0.25000  0.58440
E173  E   0.75000  0.25000  0.91560
E174  E   0.75000  0.41560  0.25000
E175  E   0.75000  0.56128  0.56128
E176  E   0.75000  0.56128  0.93872
E177  E   0.75000  0.58440  0.25000
E178  E   0.75000  0.91560  0.25000
E179  E   0.75000  0.93872  0.56128
E180  E   0.75000  0.93872  0.93872
E181  E   0.76989  0.08603  0.89571
E182  E   0.76989  0.41397  0.60429
E183  E   0.76989  0.60429  0.41397
E184  E   0.76989  0.89571  0.08603
E185  E   0.80968  0.00000  0.19032
E186  E   0.80968  0.00000  0.19032
E187  E   0.80968  0.19032  0.00000
E188  E   0.80968  0.19032  0.00000
E189  E   0.80968  0.30968  0.50000
E190  E   0.80968  0.30968  0.50000
E191  E   0.80968  0.50000  0.30968
E192  E   0.80968  0.50000  0.30968
E193  E   0.81291  0.00163  0.68709
E194  E   0.81291  0.00163  0.81291
E195  E   0.81291  0.49837  0.68709
E196  E   0.81291  0.49837  0.81291
E197  E   0.81291  0.68709  0.00163
E198  E   0.81291  0.68709  0.49837
E199  E   0.81291  0.81291  0.00163
E200  E   0.81291  0.81291  0.49837
E201  E   0.82957  0.14731  0.14731
E202  E   0.82957  0.35269  0.35269
E203  E   0.85269  0.17043  0.85269
E204  E   0.85269  0.32957  0.64731
E205  E   0.85269  0.64731  0.32957
E206  E   0.85269  0.85269  0.17043
E207  E   0.89571  0.08603  0.76989
E208  E   0.89571  0.41397  0.73011
E209  E   0.89571  0.73011  0.41397
E210  E   0.89571  0.76989  0.08603
E211  E   0.91397  0.10429  0.23011
E212  E   0.91397  0.23011  0.10429
E213  E   0.91397  0.26989  0.39571
E214  E   0.91397  0.39571  0.26989
E215  E   0.91560  0.25000  0.75000
E216  E   0.91560  0.75000  0.25000
E217  E   0.93872  0.56128  0.75000
E218  E   0.93872  0.75000  0.56128
E219  E   0.93872  0.75000  0.93872
E220  E   0.93872  0.93872  0.75000
E221  E   0.99837  0.18709  0.18709
E222  E   0.99837  0.18709  0.18709
E223  E   0.99837  0.18709  0.31291
E224  E   0.99837  0.31291  0.18709
E225  E   0.99837  0.31291  0.31291
loop_
