data_fvr_R-3m:H  hall_number: 166, V_con: 4, EC_con: 4
_audit_creation_date              2025-03-06
_audit_creation_method            'MOFbuilder_1.0'
_symmetry_space_group_name_H-M    'P1'
_symmetry_Int_Tables_number       1
_symmetry_cell_setting            triclinic
loop_
_symmetry_equiv_pos_as_xyz
  x,y,z
_cell_length_a                    39.9124
_cell_length_b                    39.9124
_cell_length_c                    73.8043
_cell_angle_alpha                 90.0
_cell_angle_beta                  90.0
_cell_angle_gamma                 120.0
loop_
_atom_site_label
_atom_site_type_symbol
_atom_site_fract_x
_atom_site_fract_y
_atom_site_fract_z
V1    V   0.00000  0.25055  0.00000
V2    V   0.00000  0.75055  0.50000
V3    V   0.50000  0.24945  0.50000
V4    V   0.50000  0.74945  0.00000
EC1    EC   0.00000  0.25055  0.22222
EC2    EC   0.00000  0.75055  0.27778
EC3    EC   0.50000  0.24945  0.72222
EC4    EC   0.50000  0.74945  0.77778
E1    E   0.04139  0.33333  0.94444
E2    E   0.04139  0.83333  0.55556
E3    E   0.12527  0.25055  0.00000
E4    E   0.12527  0.25055  0.22222
E5    E   0.12527  0.75055  0.27778
E6    E   0.12527  0.75055  0.50000
E7    E   0.37473  0.37473  0.72222
E8    E   0.37473  0.87473  0.77778
E9    E   0.45861  0.20806  0.66667
E10   E   0.45861  0.70806  0.83333
E11   E   0.54139  0.16667  0.44444
E12   E   0.54139  0.66667  0.05556
E13   E   0.62527  0.24945  0.50000
E14   E   0.62527  0.24945  0.72222
E15   E   0.62527  0.74945  0.00000
E16   E   0.62527  0.74945  0.77778
E17   E   0.87473  0.12527  0.22222
E18   E   0.87473  0.62527  0.27778
E19   E   0.95861  0.29194  0.16667
E20   E   0.95861  0.79194  0.33333
loop_
