data_fvw_P42/mmc  hall_number: 412, V_con: 4, EC_con: 4
_audit_creation_date              2025-03-06
_audit_creation_method            'MOFbuilder_1.0'
_symmetry_space_group_name_H-M    'P1'
_symmetry_Int_Tables_number       1
_symmetry_cell_setting            triclinic
loop_
_symmetry_equiv_pos_as_xyz
  x,y,z
_cell_length_a                    27.2331
_cell_length_b                    27.2331
_cell_length_c                    57.4858
_cell_angle_alpha                 90.0
_cell_angle_beta                  90.0
_cell_angle_gamma                 90.0
loop_
_atom_site_label
_atom_site_type_symbol
_atom_site_fract_x
_atom_site_fract_y
_atom_site_fract_z
V1    V   0.18360  0.31640  0.17526
V2    V   0.18360  0.31640  0.82474
V3    V   0.18360  0.68360  0.17526
V4    V   0.18360  0.68360  0.82474
V5    V   0.31640  0.18360  0.32474
V6    V   0.31640  0.18360  0.67526
V7    V   0.31640  0.81640  0.32474
V8    V   0.31640  0.81640  0.67526
V9    V   0.68360  0.18360  0.32474
V10   V   0.68360  0.18360  0.67526
V11   V   0.68360  0.81640  0.32474
V12   V   0.68360  0.81640  0.67526
V13   V   0.81640  0.31640  0.17526
V14   V   0.81640  0.31640  0.82474
V15   V   0.81640  0.68360  0.17526
V16   V   0.81640  0.68360  0.82474
EC1    EC   0.31640  0.50000  0.41302
EC2    EC   0.31640  0.50000  0.58698
EC3    EC   0.50000  0.31640  0.08698
EC4    EC   0.50000  0.31640  0.91302
EC5    EC   0.50000  0.68360  0.08698
EC6    EC   0.50000  0.68360  0.91302
EC7    EC   0.68360  0.50000  0.41302
EC8    EC   0.68360  0.50000  0.58698
E1    E   0.00000  0.31640  0.17526
E2    E   0.00000  0.31640  0.82474
E3    E   0.00000  0.68360  0.17526
E4    E   0.00000  0.68360  0.82474
E5    E   0.18360  0.50000  0.17526
E6    E   0.18360  0.50000  0.82474
E7    E   0.25000  0.25000  0.25000
E8    E   0.25000  0.25000  0.75000
E9    E   0.25000  0.75000  0.25000
E10   E   0.25000  0.75000  0.75000
E11   E   0.31640  0.00000  0.32474
E12   E   0.31640  0.00000  0.67526
E13   E   0.31640  0.34180  0.36888
E14   E   0.31640  0.34180  0.63112
E15   E   0.31640  0.50000  0.50000
E16   E   0.31640  0.65820  0.36888
E17   E   0.31640  0.65820  0.63112
E18   E   0.34180  0.31640  0.13112
E19   E   0.34180  0.31640  0.86888
E20   E   0.34180  0.68360  0.13112
E21   E   0.34180  0.68360  0.86888
E22   E   0.50000  0.18360  0.32474
E23   E   0.50000  0.18360  0.67526
E24   E   0.50000  0.31640  0.00000
E25   E   0.50000  0.50000  0.08698
E26   E   0.50000  0.50000  0.41302
E27   E   0.50000  0.50000  0.58698
E28   E   0.50000  0.50000  0.91302
E29   E   0.50000  0.68360  0.00000
E30   E   0.50000  0.81640  0.32474
E31   E   0.50000  0.81640  0.67526
E32   E   0.65820  0.31640  0.13112
E33   E   0.65820  0.31640  0.86888
E34   E   0.65820  0.68360  0.13112
E35   E   0.65820  0.68360  0.86888
E36   E   0.68360  0.00000  0.32474
E37   E   0.68360  0.00000  0.67526
E38   E   0.68360  0.34180  0.36888
E39   E   0.68360  0.34180  0.63112
E40   E   0.68360  0.50000  0.50000
E41   E   0.68360  0.65820  0.36888
E42   E   0.68360  0.65820  0.63112
E43   E   0.75000  0.25000  0.25000
E44   E   0.75000  0.25000  0.75000
E45   E   0.75000  0.75000  0.25000
E46   E   0.75000  0.75000  0.75000
E47   E   0.81640  0.50000  0.17526
E48   E   0.81640  0.50000  0.82474
loop_
