data_gea_P63/mmc  hall_number: 488, V_con: 18, EC_con: 3
_audit_creation_date              2025-03-06
_audit_creation_method            'MOFbuilder_1.0'
_symmetry_space_group_name_H-M    'P1'
_symmetry_Int_Tables_number       1
_symmetry_cell_setting            triclinic
loop_
_symmetry_equiv_pos_as_xyz
  x,y,z
_cell_length_a                    18.4101
_cell_length_b                    18.4101
_cell_length_c                    25.7037
_cell_angle_alpha                 90.0
_cell_angle_beta                  90.0
_cell_angle_gamma                 120.0
loop_
_atom_site_label
_atom_site_type_symbol
_atom_site_fract_x
_atom_site_fract_y
_atom_site_fract_z
V1    V   0.33333  0.66666  0.75000
V2    V   0.33333  0.66667  0.75000
V3    V   0.33334  0.66667  0.75000
V4    V   0.66666  0.33333  0.25000
V5    V   0.66667  0.33333  0.25000
V6    V   0.66667  0.33334  0.25000
EC1    EC   0.21326  0.42652  0.10940
EC2    EC   0.21326  0.42652  0.39060
EC3    EC   0.21326  0.78674  0.10940
EC4    EC   0.21326  0.78674  0.39060
EC5    EC   0.42652  0.21326  0.60940
EC6    EC   0.42652  0.21326  0.89060
EC7    EC   0.57348  0.78674  0.10940
EC8    EC   0.57348  0.78674  0.39060
EC9    EC   0.78674  0.21326  0.60940
EC10   EC   0.78674  0.21326  0.89060
EC11   EC   0.78674  0.57348  0.60940
EC12   EC   0.78674  0.57348  0.89060
E1    E   0.06003  0.43996  0.67970
E2    E   0.06003  0.43996  0.82030
E3    E   0.06003  0.62007  0.67970
E4    E   0.06003  0.62007  0.82030
E5    E   0.27330  0.54660  0.57030
E6    E   0.27330  0.54660  0.92970
E7    E   0.27330  0.72670  0.57030
E8    E   0.27330  0.72670  0.92970
E9    E   0.37993  0.43996  0.67970
E10   E   0.37993  0.43996  0.82030
E11   E   0.37993  0.93997  0.67970
E12   E   0.37993  0.93997  0.82030
E13   E   0.43996  0.06003  0.17970
E14   E   0.43996  0.06003  0.32030
E15   E   0.43996  0.37993  0.17970
E16   E   0.43996  0.37993  0.32030
E17   E   0.45340  0.72670  0.57030
E18   E   0.45340  0.72670  0.92970
E19   E   0.54660  0.27330  0.07030
E20   E   0.54660  0.27330  0.42970
E21   E   0.56004  0.62007  0.67970
E22   E   0.56004  0.62007  0.82030
E23   E   0.56004  0.93997  0.67970
E24   E   0.56004  0.93997  0.82030
E25   E   0.62007  0.06003  0.17970
E26   E   0.62007  0.06003  0.32030
E27   E   0.62007  0.56004  0.17970
E28   E   0.62007  0.56004  0.32030
E29   E   0.72670  0.27330  0.07030
E30   E   0.72670  0.27330  0.42970
E31   E   0.72670  0.45340  0.07030
E32   E   0.72670  0.45340  0.42970
E33   E   0.93997  0.37993  0.17970
E34   E   0.93997  0.37993  0.32030
E35   E   0.93997  0.56004  0.17970
E36   E   0.93997  0.56004  0.32030
loop_
