data_gie_Ia-3d  hall_number: 530, V_con: 4
_audit_creation_date              2025-03-06
_audit_creation_method            'MOFbuilder_1.0'
_symmetry_space_group_name_H-M    'P1'
_symmetry_Int_Tables_number       1
_symmetry_cell_setting            triclinic
loop_
_symmetry_equiv_pos_as_xyz
  x,y,z
_cell_length_a                    58.6923
_cell_length_b                    58.6923
_cell_length_c                    58.6923
_cell_angle_alpha                 90.0
_cell_angle_beta                  90.0
_cell_angle_gamma                 90.0
loop_
_atom_site_label
_atom_site_type_symbol
_atom_site_fract_x
_atom_site_fract_y
_atom_site_fract_z
V1    V   0.01082  0.13565  0.40070
V2    V   0.01082  0.36435  0.90070
V3    V   0.01082  0.63565  0.59930
V4    V   0.01082  0.86435  0.09930
V5    V   0.09930  0.01082  0.86435
V6    V   0.09930  0.48918  0.36435
V7    V   0.09930  0.51082  0.13565
V8    V   0.09930  0.98918  0.63565
V9    V   0.11435  0.23918  0.84930
V10   V   0.11435  0.26082  0.34930
V11   V   0.11435  0.73918  0.15070
V12   V   0.11435  0.76082  0.65070
V13   V   0.13565  0.09930  0.51082
V14   V   0.13565  0.40070  0.01082
V15   V   0.13565  0.59930  0.48918
V16   V   0.13565  0.90070  0.98918
V17   V   0.15070  0.11435  0.73918
V18   V   0.15070  0.38565  0.23918
V19   V   0.15070  0.61435  0.26082
V20   V   0.15070  0.88565  0.76082
V21   V   0.23918  0.15070  0.38565
V22   V   0.23918  0.34930  0.88565
V23   V   0.23918  0.65070  0.61435
V24   V   0.23918  0.84930  0.11435
V25   V   0.26082  0.15070  0.61435
V26   V   0.26082  0.34930  0.11435
V27   V   0.26082  0.65070  0.38565
V28   V   0.26082  0.84930  0.88565
V29   V   0.34930  0.11435  0.26082
V30   V   0.34930  0.38565  0.76082
V31   V   0.34930  0.61435  0.73918
V32   V   0.34930  0.88565  0.23918
V33   V   0.36435  0.09930  0.48918
V34   V   0.36435  0.40070  0.98918
V35   V   0.36435  0.59930  0.51082
V36   V   0.36435  0.90070  0.01082
V37   V   0.38565  0.23918  0.15070
V38   V   0.38565  0.26082  0.65070
V39   V   0.38565  0.73918  0.84930
V40   V   0.38565  0.76082  0.34930
V41   V   0.40070  0.01082  0.13565
V42   V   0.40070  0.48918  0.63565
V43   V   0.40070  0.51082  0.86435
V44   V   0.40070  0.98918  0.36435
V45   V   0.48918  0.13565  0.59930
V46   V   0.48918  0.36435  0.09930
V47   V   0.48918  0.63565  0.40070
V48   V   0.48918  0.86435  0.90070
V49   V   0.51082  0.13565  0.09930
V50   V   0.51082  0.36435  0.59930
V51   V   0.51082  0.63565  0.90070
V52   V   0.51082  0.86435  0.40070
V53   V   0.59930  0.01082  0.63565
V54   V   0.59930  0.48918  0.13565
V55   V   0.59930  0.51082  0.36435
V56   V   0.59930  0.98918  0.86435
V57   V   0.61435  0.23918  0.65070
V58   V   0.61435  0.26082  0.15070
V59   V   0.61435  0.73918  0.34930
V60   V   0.61435  0.76082  0.84930
V61   V   0.63565  0.09930  0.98918
V62   V   0.63565  0.40070  0.48918
V63   V   0.63565  0.59930  0.01082
V64   V   0.63565  0.90070  0.51082
V65   V   0.65070  0.11435  0.76082
V66   V   0.65070  0.38565  0.26082
V67   V   0.65070  0.61435  0.23918
V68   V   0.65070  0.88565  0.73918
V69   V   0.73918  0.15070  0.11435
V70   V   0.73918  0.34930  0.61435
V71   V   0.73918  0.65070  0.88565
V72   V   0.73918  0.84930  0.38565
V73   V   0.76082  0.15070  0.88565
V74   V   0.76082  0.34930  0.38565
V75   V   0.76082  0.65070  0.11435
V76   V   0.76082  0.84930  0.61435
V77   V   0.84930  0.11435  0.23918
V78   V   0.84930  0.38565  0.73918
V79   V   0.84930  0.61435  0.76082
V80   V   0.84930  0.88565  0.26082
V81   V   0.86435  0.09930  0.01082
V82   V   0.86435  0.40070  0.51082
V83   V   0.86435  0.59930  0.98918
V84   V   0.86435  0.90070  0.48918
V85   V   0.88565  0.23918  0.34930
V86   V   0.88565  0.26082  0.84930
V87   V   0.88565  0.73918  0.65070
V88   V   0.88565  0.76082  0.15070
V89   V   0.90070  0.01082  0.36435
V90   V   0.90070  0.48918  0.86435
V91   V   0.90070  0.51082  0.63565
V92   V   0.90070  0.98918  0.13565
V93   V   0.98918  0.13565  0.90070
V94   V   0.98918  0.36435  0.40070
V95   V   0.98918  0.63565  0.09930
V96   V   0.98918  0.86435  0.59930
E1    E   0.04424  0.07323  0.88253
E2    E   0.04424  0.42677  0.38253
E3    E   0.04424  0.57323  0.11747
E4    E   0.04424  0.92677  0.61747
E5    E   0.05177  0.18741  0.87500
E6    E   0.05177  0.31259  0.37500
E7    E   0.05177  0.68741  0.12500
E8    E   0.05177  0.81259  0.62500
E9    E   0.06259  0.19823  0.37500
E10   E   0.06259  0.30177  0.87500
E11   E   0.06259  0.69823  0.62500
E12   E   0.06259  0.80177  0.12500
E13   E   0.07323  0.11747  0.45576
E14   E   0.07323  0.38253  0.95576
E15   E   0.07323  0.61747  0.54424
E16   E   0.07323  0.88253  0.04424
E17   E   0.11747  0.04424  0.57323
E18   E   0.11747  0.45576  0.07323
E19   E   0.11747  0.54424  0.42677
E20   E   0.11747  0.95576  0.92677
E21   E   0.12500  0.05177  0.68741
E22   E   0.12500  0.06259  0.80177
E23   E   0.12500  0.43741  0.30177
E24   E   0.12500  0.44823  0.18741
E25   E   0.12500  0.55177  0.31259
E26   E   0.12500  0.56259  0.19823
E27   E   0.12500  0.93741  0.69823
E28   E   0.12500  0.94823  0.81259
E29   E   0.13253  0.17677  0.79424
E30   E   0.13253  0.32323  0.29424
E31   E   0.13253  0.67677  0.20576
E32   E   0.13253  0.82323  0.70576
E33   E   0.17677  0.20576  0.36747
E34   E   0.17677  0.29424  0.86747
E35   E   0.17677  0.70576  0.63253
E36   E   0.17677  0.79424  0.13253
E37   E   0.18741  0.12500  0.44823
E38   E   0.18741  0.37500  0.94823
E39   E   0.18741  0.62500  0.55177
E40   E   0.18741  0.87500  0.05177
E41   E   0.19823  0.12500  0.56259
E42   E   0.19823  0.37500  0.06259
E43   E   0.19823  0.62500  0.43741
E44   E   0.19823  0.87500  0.93741
E45   E   0.20576  0.13253  0.67677
E46   E   0.20576  0.36747  0.17677
E47   E   0.20576  0.63253  0.32323
E48   E   0.20576  0.86747  0.82323
E49   E   0.29424  0.13253  0.32323
E50   E   0.29424  0.36747  0.82323
E51   E   0.29424  0.63253  0.67677
E52   E   0.29424  0.86747  0.17677
E53   E   0.30177  0.12500  0.43741
E54   E   0.30177  0.37500  0.93741
E55   E   0.30177  0.62500  0.56259
E56   E   0.30177  0.87500  0.06259
E57   E   0.31259  0.12500  0.55177
E58   E   0.31259  0.37500  0.05177
E59   E   0.31259  0.62500  0.44823
E60   E   0.31259  0.87500  0.94823
E61   E   0.32323  0.20576  0.63253
E62   E   0.32323  0.29424  0.13253
E63   E   0.32323  0.70576  0.36747
E64   E   0.32323  0.79424  0.86747
E65   E   0.36747  0.17677  0.20576
E66   E   0.36747  0.32323  0.70576
E67   E   0.36747  0.67677  0.79424
E68   E   0.36747  0.82323  0.29424
E69   E   0.37500  0.05177  0.31259
E70   E   0.37500  0.06259  0.19823
E71   E   0.37500  0.43741  0.69823
E72   E   0.37500  0.44823  0.81259
E73   E   0.37500  0.55177  0.68741
E74   E   0.37500  0.56259  0.80177
E75   E   0.37500  0.93741  0.30177
E76   E   0.37500  0.94823  0.18741
E77   E   0.38253  0.04424  0.42677
E78   E   0.38253  0.45576  0.92677
E79   E   0.38253  0.54424  0.57323
E80   E   0.38253  0.95576  0.07323
E81   E   0.42677  0.11747  0.54424
E82   E   0.42677  0.38253  0.04424
E83   E   0.42677  0.61747  0.45576
E84   E   0.42677  0.88253  0.95576
E85   E   0.43741  0.19823  0.62500
E86   E   0.43741  0.30177  0.12500
E87   E   0.43741  0.69823  0.37500
E88   E   0.43741  0.80177  0.87500
E89   E   0.44823  0.18741  0.12500
E90   E   0.44823  0.31259  0.62500
E91   E   0.44823  0.68741  0.87500
E92   E   0.44823  0.81259  0.37500
E93   E   0.45576  0.07323  0.11747
E94   E   0.45576  0.42677  0.61747
E95   E   0.45576  0.57323  0.88253
E96   E   0.45576  0.92677  0.38253
E97   E   0.54424  0.07323  0.61747
E98   E   0.54424  0.42677  0.11747
E99   E   0.54424  0.57323  0.38253
E100  E   0.54424  0.92677  0.88253
E101  E   0.55177  0.18741  0.62500
E102  E   0.55177  0.31259  0.12500
E103  E   0.55177  0.68741  0.37500
E104  E   0.55177  0.81259  0.87500
E105  E   0.56259  0.19823  0.12500
E106  E   0.56259  0.30177  0.62500
E107  E   0.56259  0.69823  0.87500
E108  E   0.56259  0.80177  0.37500
E109  E   0.57323  0.11747  0.04424
E110  E   0.57323  0.38253  0.54424
E111  E   0.57323  0.61747  0.95576
E112  E   0.57323  0.88253  0.45576
E113  E   0.61747  0.04424  0.92677
E114  E   0.61747  0.45576  0.42677
E115  E   0.61747  0.54424  0.07323
E116  E   0.61747  0.95576  0.57323
E117  E   0.62500  0.05177  0.81259
E118  E   0.62500  0.06259  0.69823
E119  E   0.62500  0.43741  0.19823
E120  E   0.62500  0.44823  0.31259
E121  E   0.62500  0.55177  0.18741
E122  E   0.62500  0.56259  0.30177
E123  E   0.62500  0.93741  0.80177
E124  E   0.62500  0.94823  0.68741
E125  E   0.63253  0.17677  0.70576
E126  E   0.63253  0.32323  0.20576
E127  E   0.63253  0.67677  0.29424
E128  E   0.63253  0.82323  0.79424
E129  E   0.67677  0.20576  0.13253
E130  E   0.67677  0.29424  0.63253
E131  E   0.67677  0.70576  0.86747
E132  E   0.67677  0.79424  0.36747
E133  E   0.68741  0.12500  0.05177
E134  E   0.68741  0.37500  0.55177
E135  E   0.68741  0.62500  0.94823
E136  E   0.68741  0.87500  0.44823
E137  E   0.69823  0.12500  0.93741
E138  E   0.69823  0.37500  0.43741
E139  E   0.69823  0.62500  0.06259
E140  E   0.69823  0.87500  0.56259
E141  E   0.70576  0.13253  0.82323
E142  E   0.70576  0.36747  0.32323
E143  E   0.70576  0.63253  0.17677
E144  E   0.70576  0.86747  0.67677
E145  E   0.79424  0.13253  0.17677
E146  E   0.79424  0.36747  0.67677
E147  E   0.79424  0.63253  0.82323
E148  E   0.79424  0.86747  0.32323
E149  E   0.80177  0.12500  0.06259
E150  E   0.80177  0.37500  0.56259
E151  E   0.80177  0.62500  0.93741
E152  E   0.80177  0.87500  0.43741
E153  E   0.81259  0.12500  0.94823
E154  E   0.81259  0.37500  0.44823
E155  E   0.81259  0.62500  0.05177
E156  E   0.81259  0.87500  0.55177
E157  E   0.82323  0.20576  0.86747
E158  E   0.82323  0.29424  0.36747
E159  E   0.82323  0.70576  0.13253
E160  E   0.82323  0.79424  0.63253
E161  E   0.86747  0.17677  0.29424
E162  E   0.86747  0.32323  0.79424
E163  E   0.86747  0.67677  0.70576
E164  E   0.86747  0.82323  0.20576
E165  E   0.87500  0.05177  0.18741
E166  E   0.87500  0.06259  0.30177
E167  E   0.87500  0.43741  0.80177
E168  E   0.87500  0.44823  0.68741
E169  E   0.87500  0.55177  0.81259
E170  E   0.87500  0.56259  0.69823
E171  E   0.87500  0.93741  0.19823
E172  E   0.87500  0.94823  0.31259
E173  E   0.88253  0.04424  0.07323
E174  E   0.88253  0.45576  0.57323
E175  E   0.88253  0.54424  0.92677
E176  E   0.88253  0.95576  0.42677
E177  E   0.92677  0.11747  0.95576
E178  E   0.92677  0.38253  0.45576
E179  E   0.92677  0.61747  0.04424
E180  E   0.92677  0.88253  0.54424
E181  E   0.93741  0.19823  0.87500
E182  E   0.93741  0.30177  0.37500
E183  E   0.93741  0.69823  0.12500
E184  E   0.93741  0.80177  0.62500
E185  E   0.94823  0.18741  0.37500
E186  E   0.94823  0.31259  0.87500
E187  E   0.94823  0.68741  0.62500
E188  E   0.94823  0.81259  0.12500
E189  E   0.95576  0.07323  0.38253
E190  E   0.95576  0.42677  0.88253
E191  E   0.95576  0.57323  0.61747
E192  E   0.95576  0.92677  0.11747
loop_
