data_hww_P42/mnm  hall_number: 419, V_con: 7, EC_con: 3
_audit_creation_date              2025-03-06
_audit_creation_method            'MOFbuilder_1.0'
_symmetry_space_group_name_H-M    'P1'
_symmetry_Int_Tables_number       1
_symmetry_cell_setting            triclinic
loop_
_symmetry_equiv_pos_as_xyz
  x,y,z
_cell_length_a                    28.8949
_cell_length_b                    28.8949
_cell_length_c                    15.657
_cell_angle_alpha                 90.0
_cell_angle_beta                  90.0
_cell_angle_gamma                 90.0
loop_
_atom_site_label
_atom_site_type_symbol
_atom_site_fract_x
_atom_site_fract_y
_atom_site_fract_z
V1    V   0.12236  0.12236  0.00000
V2    V   0.37764  0.62236  0.50000
V3    V   0.62236  0.37764  0.50000
V4    V   0.87764  0.87764  0.00000
EC1    EC   0.06845  0.77782  0.50000
EC2    EC   0.22218  0.93155  0.50000
EC3    EC   0.27782  0.43155  0.00000
EC4    EC   0.43155  0.27782  0.00000
EC5    EC   0.56845  0.72218  0.00000
EC6    EC   0.72218  0.56845  0.00000
EC7    EC   0.77782  0.06845  0.50000
EC8    EC   0.93155  0.22218  0.50000
E1    E   0.00000  0.00000  0.00000
E2    E   0.02695  0.17227  0.25000
E3    E   0.02695  0.17227  0.75000
E4    E   0.17227  0.02695  0.25000
E5    E   0.17227  0.02695  0.75000
E6    E   0.20009  0.27695  0.00000
E7    E   0.22305  0.70009  0.50000
E8    E   0.27695  0.20009  0.00000
E9    E   0.29991  0.77695  0.50000
E10   E   0.32773  0.52695  0.25000
E11   E   0.32773  0.52695  0.75000
E12   E   0.47305  0.67227  0.25000
E13   E   0.47305  0.67227  0.75000
E14   E   0.50000  0.50000  0.50000
E15   E   0.52695  0.32773  0.25000
E16   E   0.52695  0.32773  0.75000
E17   E   0.67227  0.47305  0.25000
E18   E   0.67227  0.47305  0.75000
E19   E   0.70009  0.22305  0.50000
E20   E   0.72305  0.79991  0.00000
E21   E   0.77695  0.29991  0.50000
E22   E   0.79991  0.72305  0.00000
E23   E   0.82773  0.97305  0.25000
E24   E   0.82773  0.97305  0.75000
E25   E   0.97305  0.82773  0.25000
E26   E   0.97305  0.82773  0.75000
loop_
