data_iph_I41/amd:2  hall_number: 427, V_con: 3, EC_con: 3
_audit_creation_date              2025-03-06
_audit_creation_method            'MOFbuilder_1.0'
_symmetry_space_group_name_H-M    'P1'
_symmetry_Int_Tables_number       1
_symmetry_cell_setting            triclinic
loop_
_symmetry_equiv_pos_as_xyz
  x,y,z
_cell_length_a                    58.3805
_cell_length_b                    58.3805
_cell_length_c                    34.5292
_cell_angle_alpha                 90.0
_cell_angle_beta                  90.0
_cell_angle_gamma                 90.0
loop_
_atom_site_label
_atom_site_type_symbol
_atom_site_fract_x
_atom_site_fract_y
_atom_site_fract_z
V1    V   0.20677  0.04323  0.87500
V2    V   0.20677  0.04323  0.87500
V3    V   0.20677  0.45677  0.87500
V4    V   0.20677  0.54323  0.12500
V5    V   0.20677  0.95677  0.12500
V6    V   0.29323  0.04323  0.62500
V7    V   0.29323  0.45677  0.62500
V8    V   0.29323  0.54323  0.37500
V9    V   0.29323  0.95677  0.37500
V10   V   0.29323  0.04323  0.62500
V11   V   0.29323  0.45677  0.62500
V12   V   0.29323  0.54323  0.37500
V13   V   0.29323  0.95677  0.37500
V14   V   0.70677  0.04323  0.62500
V15   V   0.70677  0.04323  0.62500
V16   V   0.70677  0.45677  0.62500
V17   V   0.70677  0.54323  0.37500
V18   V   0.70677  0.95677  0.37500
V19   V   0.79323  0.04323  0.87500
V20   V   0.79323  0.04323  0.87500
V21   V   0.79323  0.45677  0.87500
V22   V   0.79323  0.54323  0.12500
V23   V   0.79323  0.95677  0.12500
EC1    EC   0.08564  0.16436  0.87500
EC2    EC   0.08564  0.33564  0.87500
EC3    EC   0.08564  0.66436  0.12500
EC4    EC   0.08564  0.83564  0.12500
EC5    EC   0.08564  0.16436  0.87500
EC6    EC   0.08564  0.33564  0.87500
EC7    EC   0.08564  0.66436  0.12500
EC8    EC   0.08564  0.83564  0.12500
EC9    EC   0.41436  0.16436  0.62500
EC10   EC   0.41436  0.33564  0.62500
EC11   EC   0.41436  0.66436  0.37500
EC12   EC   0.41436  0.83564  0.37500
EC13   EC   0.41436  0.16436  0.62500
EC14   EC   0.41436  0.33564  0.62500
EC15   EC   0.41436  0.66436  0.37500
EC16   EC   0.41436  0.83564  0.37500
EC17   EC   0.58564  0.16436  0.62500
EC18   EC   0.58564  0.33564  0.62500
EC19   EC   0.58564  0.66436  0.37500
EC20   EC   0.58564  0.83564  0.37500
EC21   EC   0.58564  0.16436  0.62500
EC22   EC   0.58564  0.33564  0.62500
EC23   EC   0.58564  0.66436  0.37500
EC24   EC   0.58564  0.83564  0.37500
EC25   EC   0.91436  0.16436  0.87500
EC26   EC   0.91436  0.33564  0.87500
EC27   EC   0.91436  0.66436  0.12500
EC28   EC   0.91436  0.83564  0.12500
EC29   EC   0.91436  0.16436  0.87500
EC30   EC   0.91436  0.33564  0.87500
EC31   EC   0.91436  0.66436  0.12500
EC32   EC   0.91436  0.83564  0.12500
E1    E   0.00000  0.16436  0.87500
E2    E   0.00000  0.33564  0.87500
E3    E   0.00000  0.66436  0.12500
E4    E   0.00000  0.83564  0.12500
E5    E   0.08564  0.25000  0.87500
E6    E   0.08564  0.75000  0.12500
E7    E   0.14620  0.10380  0.87500
E8    E   0.14620  0.10380  0.87500
E9    E   0.14620  0.39620  0.87500
E10   E   0.14620  0.60380  0.12500
E11   E   0.14620  0.89620  0.12500
E12   E   0.20677  0.00000  0.00000
E13   E   0.20677  0.50000  0.00000
E14   E   0.25000  0.04323  0.75000
E15   E   0.25000  0.45677  0.75000
E16   E   0.25000  0.54323  0.25000
E17   E   0.25000  0.95677  0.25000
E18   E   0.29323  0.00000  0.50000
E19   E   0.29323  0.50000  0.50000
E20   E   0.35380  0.10380  0.62500
E21   E   0.35380  0.39620  0.62500
E22   E   0.35380  0.60380  0.37500
E23   E   0.35380  0.89620  0.37500
E24   E   0.35380  0.10380  0.62500
E25   E   0.35380  0.39620  0.62500
E26   E   0.35380  0.60380  0.37500
E27   E   0.35380  0.89620  0.37500
E28   E   0.41436  0.25000  0.62500
E29   E   0.41436  0.75000  0.37500
E30   E   0.50000  0.16436  0.62500
E31   E   0.50000  0.33564  0.62500
E32   E   0.50000  0.66436  0.37500
E33   E   0.50000  0.83564  0.37500
E34   E   0.58564  0.25000  0.62500
E35   E   0.58564  0.75000  0.37500
E36   E   0.64620  0.10380  0.62500
E37   E   0.64620  0.10380  0.62500
E38   E   0.64620  0.39620  0.62500
E39   E   0.64620  0.60380  0.37500
E40   E   0.64620  0.89620  0.37500
E41   E   0.70677  0.00000  0.50000
E42   E   0.70677  0.50000  0.50000
E43   E   0.75000  0.04323  0.75000
E44   E   0.75000  0.45677  0.75000
E45   E   0.75000  0.54323  0.25000
E46   E   0.75000  0.95677  0.25000
E47   E   0.79323  0.00000  0.00000
E48   E   0.79323  0.50000  0.00000
E49   E   0.85380  0.10380  0.87500
E50   E   0.85380  0.10380  0.87500
E51   E   0.85380  0.39620  0.87500
E52   E   0.85380  0.60380  0.12500
E53   E   0.85380  0.89620  0.12500
E54   E   0.91436  0.25000  0.87500
E55   E   0.91436  0.75000  0.12500
loop_
