data_ith-e_Pm-3n  hall_number: 520, V_con: 8
_audit_creation_date              2025-03-06
_audit_creation_method            'MOFbuilder_1.0'
_symmetry_space_group_name_H-M    'P1'
_symmetry_Int_Tables_number       1
_symmetry_cell_setting            triclinic
loop_
_symmetry_equiv_pos_as_xyz
  x,y,z
_cell_length_a                    27.9543
_cell_length_b                    27.9543
_cell_length_c                    27.9543
_cell_angle_alpha                 90.0
_cell_angle_beta                  90.0
_cell_angle_gamma                 90.0
loop_
_atom_site_label
_atom_site_type_symbol
_atom_site_fract_x
_atom_site_fract_y
_atom_site_fract_z
V1    V   0.00000  0.29942  0.16443
V2    V   0.00000  0.29942  0.83557
V3    V   0.00000  0.70058  0.16443
V4    V   0.00000  0.70058  0.83557
V5    V   0.16443  0.00000  0.29942
V6    V   0.16443  0.00000  0.70058
V7    V   0.20058  0.50000  0.33557
V8    V   0.20058  0.50000  0.66443
V9    V   0.29942  0.16443  0.00000
V10   V   0.29942  0.83557  0.00000
V11   V   0.33557  0.20058  0.50000
V12   V   0.33557  0.79942  0.50000
V13   V   0.50000  0.33557  0.20058
V14   V   0.50000  0.33557  0.79942
V15   V   0.50000  0.66443  0.20058
V16   V   0.50000  0.66443  0.79942
V17   V   0.66443  0.20058  0.50000
V18   V   0.66443  0.79942  0.50000
V19   V   0.70058  0.16443  0.00000
V20   V   0.70058  0.83557  0.00000
V21   V   0.79942  0.50000  0.33557
V22   V   0.79942  0.50000  0.66443
V23   V   0.83557  0.00000  0.29942
V24   V   0.83557  0.00000  0.70058
E1    E   0.00000  0.00000  0.29942
E2    E   0.00000  0.00000  0.70058
E3    E   0.00000  0.29942  0.00000
E4    E   0.00000  0.50000  0.16443
E5    E   0.00000  0.50000  0.33557
E6    E   0.00000  0.50000  0.66443
E7    E   0.00000  0.50000  0.83557
E8    E   0.00000  0.70058  0.00000
E9    E   0.08221  0.14971  0.23193
E10   E   0.08221  0.14971  0.76807
E11   E   0.08221  0.85029  0.23193
E12   E   0.08221  0.85029  0.76807
E13   E   0.10029  0.39971  0.25000
E14   E   0.10029  0.39971  0.75000
E15   E   0.10029  0.60029  0.25000
E16   E   0.10029  0.60029  0.75000
E17   E   0.10029  0.39971  0.25000
E18   E   0.10029  0.39971  0.75000
E19   E   0.10029  0.60029  0.25000
E20   E   0.10029  0.60029  0.75000
E21   E   0.14971  0.23193  0.08221
E22   E   0.14971  0.23193  0.91779
E23   E   0.14971  0.76807  0.08221
E24   E   0.14971  0.76807  0.91779
E25   E   0.16443  0.00000  0.50000
E26   E   0.20058  0.50000  0.50000
E27   E   0.23193  0.08221  0.14971
E28   E   0.23193  0.08221  0.85029
E29   E   0.23193  0.91779  0.14971
E30   E   0.23193  0.91779  0.85029
E31   E   0.25000  0.10029  0.39971
E32   E   0.25000  0.10029  0.60029
E33   E   0.25000  0.10029  0.39971
E34   E   0.25000  0.10029  0.60029
E35   E   0.25000  0.89971  0.39971
E36   E   0.25000  0.89971  0.60029
E37   E   0.26807  0.35029  0.41779
E38   E   0.26807  0.35029  0.58221
E39   E   0.26807  0.64971  0.41779
E40   E   0.26807  0.64971  0.58221
E41   E   0.29942  0.00000  0.00000
E42   E   0.33557  0.00000  0.50000
E43   E   0.35029  0.41779  0.26807
E44   E   0.35029  0.41779  0.73193
E45   E   0.35029  0.58221  0.26807
E46   E   0.35029  0.58221  0.73193
E47   E   0.39971  0.25000  0.10029
E48   E   0.39971  0.25000  0.10029
E49   E   0.39971  0.25000  0.89971
E50   E   0.39971  0.75000  0.10029
E51   E   0.39971  0.75000  0.10029
E52   E   0.39971  0.75000  0.89971
E53   E   0.41779  0.26807  0.35029
E54   E   0.41779  0.26807  0.64971
E55   E   0.41779  0.73193  0.35029
E56   E   0.41779  0.73193  0.64971
E57   E   0.50000  0.16443  0.00000
E58   E   0.50000  0.20058  0.50000
E59   E   0.50000  0.33557  0.00000
E60   E   0.50000  0.50000  0.20058
E61   E   0.50000  0.50000  0.79942
E62   E   0.50000  0.66443  0.00000
E63   E   0.50000  0.79942  0.50000
E64   E   0.50000  0.83557  0.00000
E65   E   0.58221  0.26807  0.35029
E66   E   0.58221  0.26807  0.64971
E67   E   0.58221  0.73193  0.35029
E68   E   0.58221  0.73193  0.64971
E69   E   0.60029  0.25000  0.10029
E70   E   0.60029  0.25000  0.10029
E71   E   0.60029  0.25000  0.89971
E72   E   0.60029  0.75000  0.10029
E73   E   0.60029  0.75000  0.10029
E74   E   0.60029  0.75000  0.89971
E75   E   0.64971  0.41779  0.26807
E76   E   0.64971  0.41779  0.73193
E77   E   0.64971  0.58221  0.26807
E78   E   0.64971  0.58221  0.73193
E79   E   0.66443  0.00000  0.50000
E80   E   0.70058  0.00000  0.00000
E81   E   0.73193  0.35029  0.41779
E82   E   0.73193  0.35029  0.58221
E83   E   0.73193  0.64971  0.41779
E84   E   0.73193  0.64971  0.58221
E85   E   0.75000  0.10029  0.39971
E86   E   0.75000  0.10029  0.60029
E87   E   0.75000  0.10029  0.39971
E88   E   0.75000  0.10029  0.60029
E89   E   0.75000  0.89971  0.39971
E90   E   0.75000  0.89971  0.60029
E91   E   0.76807  0.08221  0.14971
E92   E   0.76807  0.08221  0.85029
E93   E   0.76807  0.91779  0.14971
E94   E   0.76807  0.91779  0.85029
E95   E   0.79942  0.50000  0.50000
E96   E   0.83557  0.00000  0.50000
E97   E   0.85029  0.23193  0.08221
E98   E   0.85029  0.23193  0.91779
E99   E   0.85029  0.76807  0.08221
E100  E   0.85029  0.76807  0.91779
E101  E   0.89971  0.39971  0.25000
E102  E   0.89971  0.39971  0.75000
E103  E   0.89971  0.60029  0.25000
E104  E   0.89971  0.60029  0.75000
E105  E   0.91779  0.14971  0.23193
E106  E   0.91779  0.14971  0.76807
E107  E   0.91779  0.85029  0.23193
E108  E   0.91779  0.85029  0.76807
loop_
