data_jmt_Im-3m  hall_number: 529, V_con: 12, EC_con: 9
_audit_creation_date              2025-03-06
_audit_creation_method            'MOFbuilder_1.0'
_symmetry_space_group_name_H-M    'P1'
_symmetry_Int_Tables_number       1
_symmetry_cell_setting            triclinic
loop_
_symmetry_equiv_pos_as_xyz
  x,y,z
_cell_length_a                    28.2843
_cell_length_b                    28.2843
_cell_length_c                    28.2843
_cell_angle_alpha                 90.0
_cell_angle_beta                  90.0
_cell_angle_gamma                 90.0
loop_
_atom_site_label
_atom_site_type_symbol
_atom_site_fract_x
_atom_site_fract_y
_atom_site_fract_z
V1    V   0.00000  0.00000  0.00000
V2    V   0.50000  0.50000  0.50000
EC1    EC   0.00000  0.25000  0.25000
EC2    EC   0.00000  0.25000  0.75000
EC3    EC   0.00000  0.75000  0.25000
EC4    EC   0.00000  0.75000  0.75000
EC5    EC   0.25000  0.00000  0.25000
EC6    EC   0.25000  0.00000  0.75000
EC7    EC   0.25000  0.25000  0.00000
EC8    EC   0.25000  0.25000  0.50000
EC9    EC   0.25000  0.50000  0.25000
EC10   EC   0.25000  0.50000  0.75000
EC11   EC   0.25000  0.75000  0.00000
EC12   EC   0.25000  0.75000  0.50000
EC13   EC   0.50000  0.25000  0.25000
EC14   EC   0.50000  0.25000  0.75000
EC15   EC   0.50000  0.75000  0.25000
EC16   EC   0.50000  0.75000  0.75000
EC17   EC   0.75000  0.00000  0.25000
EC18   EC   0.75000  0.00000  0.75000
EC19   EC   0.75000  0.25000  0.00000
EC20   EC   0.75000  0.25000  0.50000
EC21   EC   0.75000  0.50000  0.25000
EC22   EC   0.75000  0.50000  0.75000
EC23   EC   0.75000  0.75000  0.00000
EC24   EC   0.75000  0.75000  0.50000
E1    E   0.00000  0.12500  0.12500
E2    E   0.00000  0.12500  0.87500
E3    E   0.00000  0.87500  0.12500
E4    E   0.00000  0.87500  0.87500
E5    E   0.12500  0.00000  0.12500
E6    E   0.12500  0.00000  0.87500
E7    E   0.12500  0.12500  0.00000
E8    E   0.12500  0.12500  0.25000
E9    E   0.12500  0.12500  0.75000
E10   E   0.12500  0.25000  0.12500
E11   E   0.12500  0.25000  0.37500
E12   E   0.12500  0.25000  0.62500
E13   E   0.12500  0.25000  0.87500
E14   E   0.12500  0.37500  0.25000
E15   E   0.12500  0.37500  0.75000
E16   E   0.12500  0.62500  0.25000
E17   E   0.12500  0.62500  0.75000
E18   E   0.12500  0.75000  0.12500
E19   E   0.12500  0.75000  0.37500
E20   E   0.12500  0.75000  0.62500
E21   E   0.12500  0.75000  0.87500
E22   E   0.12500  0.87500  0.00000
E23   E   0.12500  0.87500  0.25000
E24   E   0.12500  0.87500  0.75000
E25   E   0.25000  0.12500  0.12500
E26   E   0.25000  0.12500  0.37500
E27   E   0.25000  0.12500  0.62500
E28   E   0.25000  0.12500  0.87500
E29   E   0.25000  0.37500  0.12500
E30   E   0.25000  0.37500  0.37500
E31   E   0.25000  0.37500  0.62500
E32   E   0.25000  0.37500  0.87500
E33   E   0.25000  0.62500  0.12500
E34   E   0.25000  0.62500  0.37500
E35   E   0.25000  0.62500  0.62500
E36   E   0.25000  0.62500  0.87500
E37   E   0.25000  0.87500  0.12500
E38   E   0.25000  0.87500  0.37500
E39   E   0.25000  0.87500  0.62500
E40   E   0.25000  0.87500  0.87500
E41   E   0.37500  0.12500  0.25000
E42   E   0.37500  0.12500  0.75000
E43   E   0.37500  0.25000  0.12500
E44   E   0.37500  0.25000  0.37500
E45   E   0.37500  0.25000  0.62500
E46   E   0.37500  0.25000  0.87500
E47   E   0.37500  0.37500  0.25000
E48   E   0.37500  0.37500  0.50000
E49   E   0.37500  0.37500  0.75000
E50   E   0.37500  0.50000  0.37500
E51   E   0.37500  0.50000  0.62500
E52   E   0.37500  0.62500  0.25000
E53   E   0.37500  0.62500  0.50000
E54   E   0.37500  0.62500  0.75000
E55   E   0.37500  0.75000  0.12500
E56   E   0.37500  0.75000  0.37500
E57   E   0.37500  0.75000  0.62500
E58   E   0.37500  0.75000  0.87500
E59   E   0.37500  0.87500  0.25000
E60   E   0.37500  0.87500  0.75000
E61   E   0.50000  0.37500  0.37500
E62   E   0.50000  0.37500  0.62500
E63   E   0.50000  0.62500  0.37500
E64   E   0.50000  0.62500  0.62500
E65   E   0.62500  0.12500  0.25000
E66   E   0.62500  0.12500  0.75000
E67   E   0.62500  0.25000  0.12500
E68   E   0.62500  0.25000  0.37500
E69   E   0.62500  0.25000  0.62500
E70   E   0.62500  0.25000  0.87500
E71   E   0.62500  0.37500  0.25000
E72   E   0.62500  0.37500  0.50000
E73   E   0.62500  0.37500  0.75000
E74   E   0.62500  0.50000  0.37500
E75   E   0.62500  0.50000  0.62500
E76   E   0.62500  0.62500  0.25000
E77   E   0.62500  0.62500  0.50000
E78   E   0.62500  0.62500  0.75000
E79   E   0.62500  0.75000  0.12500
E80   E   0.62500  0.75000  0.37500
E81   E   0.62500  0.75000  0.62500
E82   E   0.62500  0.75000  0.87500
E83   E   0.62500  0.87500  0.25000
E84   E   0.62500  0.87500  0.75000
E85   E   0.75000  0.12500  0.12500
E86   E   0.75000  0.12500  0.37500
E87   E   0.75000  0.12500  0.62500
E88   E   0.75000  0.12500  0.87500
E89   E   0.75000  0.37500  0.12500
E90   E   0.75000  0.37500  0.37500
E91   E   0.75000  0.37500  0.62500
E92   E   0.75000  0.37500  0.87500
E93   E   0.75000  0.62500  0.12500
E94   E   0.75000  0.62500  0.37500
E95   E   0.75000  0.62500  0.62500
E96   E   0.75000  0.62500  0.87500
E97   E   0.75000  0.87500  0.12500
E98   E   0.75000  0.87500  0.37500
E99   E   0.75000  0.87500  0.62500
E100  E   0.75000  0.87500  0.87500
E101  E   0.87500  0.00000  0.12500
E102  E   0.87500  0.00000  0.87500
E103  E   0.87500  0.12500  0.00000
E104  E   0.87500  0.12500  0.25000
E105  E   0.87500  0.12500  0.75000
E106  E   0.87500  0.25000  0.12500
E107  E   0.87500  0.25000  0.37500
E108  E   0.87500  0.25000  0.62500
E109  E   0.87500  0.25000  0.87500
E110  E   0.87500  0.37500  0.25000
E111  E   0.87500  0.37500  0.75000
E112  E   0.87500  0.62500  0.25000
E113  E   0.87500  0.62500  0.75000
E114  E   0.87500  0.75000  0.12500
E115  E   0.87500  0.75000  0.37500
E116  E   0.87500  0.75000  0.62500
E117  E   0.87500  0.75000  0.87500
E118  E   0.87500  0.87500  0.00000
E119  E   0.87500  0.87500  0.25000
E120  E   0.87500  0.87500  0.75000
loop_
