data_jph_I41/amd:2  hall_number: 427, V_con: 4, EC_con: 3
_audit_creation_date              2025-03-06
_audit_creation_method            'MOFbuilder_1.0'
_symmetry_space_group_name_H-M    'P1'
_symmetry_Int_Tables_number       1
_symmetry_cell_setting            triclinic
loop_
_symmetry_equiv_pos_as_xyz
  x,y,z
_cell_length_a                    40.5122
_cell_length_b                    40.5122
_cell_length_c                    31.653
_cell_angle_alpha                 90.0
_cell_angle_beta                  90.0
_cell_angle_gamma                 90.0
loop_
_atom_site_label
_atom_site_type_symbol
_atom_site_fract_x
_atom_site_fract_y
_atom_site_fract_z
V1    V   0.00000  0.25000  0.87500
V2    V   0.00000  0.75000  0.12500
V3    V   0.50000  0.25000  0.62500
V4    V   0.50000  0.75000  0.37500
EC1    EC   0.17454  0.07546  0.87500
EC2    EC   0.17454  0.42454  0.87500
EC3    EC   0.17454  0.57546  0.12500
EC4    EC   0.17454  0.92454  0.12500
EC5    EC   0.17454  0.07546  0.87500
EC6    EC   0.17454  0.42454  0.87500
EC7    EC   0.17454  0.57546  0.12500
EC8    EC   0.17454  0.92454  0.12500
EC9    EC   0.32546  0.07546  0.62500
EC10   EC   0.32546  0.42454  0.62500
EC11   EC   0.32546  0.57546  0.37500
EC12   EC   0.32546  0.92454  0.37500
EC13   EC   0.32546  0.07546  0.62500
EC14   EC   0.32546  0.42454  0.62500
EC15   EC   0.32546  0.57546  0.37500
EC16   EC   0.32546  0.92454  0.37500
EC17   EC   0.67454  0.07546  0.62500
EC18   EC   0.67454  0.07546  0.62500
EC19   EC   0.67454  0.42454  0.62500
EC20   EC   0.67454  0.57546  0.37500
EC21   EC   0.67454  0.92454  0.37500
EC22   EC   0.82546  0.07546  0.87500
EC23   EC   0.82546  0.07546  0.87500
EC24   EC   0.82546  0.42454  0.87500
EC25   EC   0.82546  0.57546  0.12500
EC26   EC   0.82546  0.92454  0.12500
E1    E   0.08727  0.16273  0.87500
E2    E   0.08727  0.33727  0.87500
E3    E   0.08727  0.66273  0.12500
E4    E   0.08727  0.83727  0.12500
E5    E   0.08727  0.16273  0.87500
E6    E   0.08727  0.33727  0.87500
E7    E   0.08727  0.66273  0.12500
E8    E   0.08727  0.83727  0.12500
E9    E   0.17454  0.00000  0.00000
E10   E   0.17454  0.50000  0.00000
E11   E   0.25000  0.07546  0.75000
E12   E   0.25000  0.42454  0.75000
E13   E   0.25000  0.57546  0.25000
E14   E   0.25000  0.92454  0.25000
E15   E   0.32546  0.00000  0.50000
E16   E   0.32546  0.50000  0.50000
E17   E   0.41273  0.16273  0.62500
E18   E   0.41273  0.33727  0.62500
E19   E   0.41273  0.66273  0.37500
E20   E   0.41273  0.83727  0.37500
E21   E   0.41273  0.16273  0.62500
E22   E   0.41273  0.33727  0.62500
E23   E   0.41273  0.66273  0.37500
E24   E   0.41273  0.83727  0.37500
E25   E   0.58727  0.16273  0.62500
E26   E   0.58727  0.16273  0.62500
E27   E   0.58727  0.33727  0.62500
E28   E   0.58727  0.33727  0.62500
E29   E   0.58727  0.66273  0.37500
E30   E   0.58727  0.83727  0.37500
E31   E   0.67454  0.00000  0.50000
E32   E   0.67454  0.50000  0.50000
E33   E   0.75000  0.07546  0.75000
E34   E   0.75000  0.42454  0.75000
E35   E   0.75000  0.57546  0.25000
E36   E   0.75000  0.92454  0.25000
E37   E   0.82546  0.00000  0.00000
E38   E   0.82546  0.50000  0.00000
E39   E   0.91273  0.16273  0.87500
E40   E   0.91273  0.16273  0.87500
E41   E   0.91273  0.33727  0.87500
E42   E   0.91273  0.33727  0.87500
E43   E   0.91273  0.66273  0.12500
E44   E   0.91273  0.83727  0.12500
loop_
