data_law_Im-3  hall_number: 500, V_con: 3, EC_con: 3
_audit_creation_date              2025-03-06
_audit_creation_method            'MOFbuilder_1.0'
_symmetry_space_group_name_H-M    'P1'
_symmetry_Int_Tables_number       1
_symmetry_cell_setting            triclinic
loop_
_symmetry_equiv_pos_as_xyz
  x,y,z
_cell_length_a                    57.5495
_cell_length_b                    57.5495
_cell_length_c                    57.5495
_cell_angle_alpha                 90.0
_cell_angle_beta                  90.0
_cell_angle_gamma                 90.0
loop_
_atom_site_label
_atom_site_type_symbol
_atom_site_fract_x
_atom_site_fract_y
_atom_site_fract_z
V1    V   0.13962  0.33468  0.19044
V2    V   0.13962  0.33468  0.80956
V3    V   0.13962  0.66532  0.19044
V4    V   0.13962  0.66532  0.80956
V5    V   0.16532  0.30956  0.36038
V6    V   0.16532  0.30956  0.63962
V7    V   0.16532  0.69044  0.36038
V8    V   0.16532  0.69044  0.63962
V9    V   0.19044  0.13962  0.33468
V10   V   0.19044  0.13962  0.66532
V11   V   0.19044  0.86038  0.33468
V12   V   0.19044  0.86038  0.66532
V13   V   0.30956  0.36038  0.16532
V14   V   0.30956  0.36038  0.83468
V15   V   0.30956  0.63962  0.16532
V16   V   0.30956  0.63962  0.83468
V17   V   0.33468  0.19044  0.13962
V18   V   0.33468  0.19044  0.86038
V19   V   0.33468  0.80956  0.13962
V20   V   0.33468  0.80956  0.86038
V21   V   0.36038  0.16532  0.30956
V22   V   0.36038  0.16532  0.69044
V23   V   0.36038  0.83468  0.30956
V24   V   0.36038  0.83468  0.69044
V25   V   0.63962  0.16532  0.30956
V26   V   0.63962  0.16532  0.69044
V27   V   0.63962  0.83468  0.30956
V28   V   0.63962  0.83468  0.69044
V29   V   0.66532  0.19044  0.13962
V30   V   0.66532  0.19044  0.86038
V31   V   0.66532  0.80956  0.13962
V32   V   0.66532  0.80956  0.86038
V33   V   0.69044  0.36038  0.16532
V34   V   0.69044  0.36038  0.83468
V35   V   0.69044  0.63962  0.16532
V36   V   0.69044  0.63962  0.83468
V37   V   0.80956  0.13962  0.33468
V38   V   0.80956  0.13962  0.66532
V39   V   0.80956  0.86038  0.33468
V40   V   0.80956  0.86038  0.66532
V41   V   0.83468  0.30956  0.36038
V42   V   0.83468  0.30956  0.63962
V43   V   0.83468  0.69044  0.36038
V44   V   0.83468  0.69044  0.63962
V45   V   0.86038  0.33468  0.19044
V46   V   0.86038  0.33468  0.80956
V47   V   0.86038  0.66532  0.19044
V48   V   0.86038  0.66532  0.80956
EC1    EC   0.00000  0.33475  0.08693
EC2    EC   0.00000  0.33475  0.91307
EC3    EC   0.00000  0.66525  0.08693
EC4    EC   0.00000  0.66525  0.91307
EC5    EC   0.08693  0.00000  0.33475
EC6    EC   0.08693  0.00000  0.66525
EC7    EC   0.16525  0.41307  0.50000
EC8    EC   0.16525  0.58693  0.50000
EC9    EC   0.33475  0.08693  0.00000
EC10   EC   0.33475  0.91307  0.00000
EC11   EC   0.41307  0.50000  0.16525
EC12   EC   0.41307  0.50000  0.83475
EC13   EC   0.50000  0.16525  0.41307
EC14   EC   0.50000  0.16525  0.58693
EC15   EC   0.50000  0.83475  0.41307
EC16   EC   0.50000  0.83475  0.58693
EC17   EC   0.58693  0.50000  0.16525
EC18   EC   0.58693  0.50000  0.83475
EC19   EC   0.66525  0.08693  0.00000
EC20   EC   0.66525  0.91307  0.00000
EC21   EC   0.83475  0.41307  0.50000
EC22   EC   0.83475  0.58693  0.50000
EC23   EC   0.91307  0.00000  0.33475
EC24   EC   0.91307  0.00000  0.66525
E1    E   0.00000  0.00000  0.33475
E2    E   0.00000  0.00000  0.66525
E3    E   0.00000  0.33475  0.00000
E4    E   0.00000  0.66525  0.00000
E5    E   0.06981  0.33471  0.13869
E6    E   0.06981  0.33471  0.86131
E7    E   0.06981  0.66529  0.13869
E8    E   0.06981  0.66529  0.86131
E9    E   0.13869  0.06981  0.33471
E10   E   0.13869  0.06981  0.66529
E11   E   0.13869  0.93019  0.33471
E12   E   0.13869  0.93019  0.66529
E13   E   0.15247  0.32212  0.27541
E14   E   0.15247  0.32212  0.72459
E15   E   0.15247  0.67788  0.27541
E16   E   0.15247  0.67788  0.72459
E17   E   0.16525  0.50000  0.50000
E18   E   0.16529  0.36131  0.43019
E19   E   0.16529  0.36131  0.56981
E20   E   0.16529  0.63869  0.43019
E21   E   0.16529  0.63869  0.56981
E22   E   0.17788  0.22459  0.34753
E23   E   0.17788  0.22459  0.65247
E24   E   0.17788  0.77541  0.34753
E25   E   0.17788  0.77541  0.65247
E26   E   0.22459  0.34753  0.17788
E27   E   0.22459  0.34753  0.82212
E28   E   0.22459  0.65247  0.17788
E29   E   0.22459  0.65247  0.82212
E30   E   0.27541  0.15247  0.32212
E31   E   0.27541  0.15247  0.67788
E32   E   0.27541  0.84753  0.32212
E33   E   0.27541  0.84753  0.67788
E34   E   0.32212  0.27541  0.15247
E35   E   0.32212  0.27541  0.84753
E36   E   0.32212  0.72459  0.15247
E37   E   0.32212  0.72459  0.84753
E38   E   0.33471  0.13869  0.06981
E39   E   0.33471  0.13869  0.93019
E40   E   0.33471  0.86131  0.06981
E41   E   0.33471  0.86131  0.93019
E42   E   0.33475  0.00000  0.00000
E43   E   0.34753  0.17788  0.22459
E44   E   0.34753  0.17788  0.77541
E45   E   0.34753  0.82212  0.22459
E46   E   0.34753  0.82212  0.77541
E47   E   0.36131  0.43019  0.16529
E48   E   0.36131  0.43019  0.83471
E49   E   0.36131  0.56981  0.16529
E50   E   0.36131  0.56981  0.83471
E51   E   0.43019  0.16529  0.36131
E52   E   0.43019  0.16529  0.63869
E53   E   0.43019  0.83471  0.36131
E54   E   0.43019  0.83471  0.63869
E55   E   0.50000  0.16525  0.50000
E56   E   0.50000  0.50000  0.16525
E57   E   0.50000  0.50000  0.83475
E58   E   0.50000  0.83475  0.50000
E59   E   0.56981  0.16529  0.36131
E60   E   0.56981  0.16529  0.63869
E61   E   0.56981  0.83471  0.36131
E62   E   0.56981  0.83471  0.63869
E63   E   0.63869  0.43019  0.16529
E64   E   0.63869  0.43019  0.83471
E65   E   0.63869  0.56981  0.16529
E66   E   0.63869  0.56981  0.83471
E67   E   0.65247  0.17788  0.22459
E68   E   0.65247  0.17788  0.77541
E69   E   0.65247  0.82212  0.22459
E70   E   0.65247  0.82212  0.77541
E71   E   0.66525  0.00000  0.00000
E72   E   0.66529  0.13869  0.06981
E73   E   0.66529  0.13869  0.93019
E74   E   0.66529  0.86131  0.06981
E75   E   0.66529  0.86131  0.93019
E76   E   0.67788  0.27541  0.15247
E77   E   0.67788  0.27541  0.84753
E78   E   0.67788  0.72459  0.15247
E79   E   0.67788  0.72459  0.84753
E80   E   0.72459  0.15247  0.32212
E81   E   0.72459  0.15247  0.67788
E82   E   0.72459  0.84753  0.32212
E83   E   0.72459  0.84753  0.67788
E84   E   0.77541  0.34753  0.17788
E85   E   0.77541  0.34753  0.82212
E86   E   0.77541  0.65247  0.17788
E87   E   0.77541  0.65247  0.82212
E88   E   0.82212  0.22459  0.34753
E89   E   0.82212  0.22459  0.65247
E90   E   0.82212  0.77541  0.34753
E91   E   0.82212  0.77541  0.65247
E92   E   0.83471  0.36131  0.43019
E93   E   0.83471  0.36131  0.56981
E94   E   0.83471  0.63869  0.43019
E95   E   0.83471  0.63869  0.56981
E96   E   0.83475  0.50000  0.50000
E97   E   0.84753  0.32212  0.27541
E98   E   0.84753  0.32212  0.72459
E99   E   0.84753  0.67788  0.27541
E100  E   0.84753  0.67788  0.72459
E101  E   0.86131  0.06981  0.33471
E102  E   0.86131  0.06981  0.66529
E103  E   0.86131  0.93019  0.33471
E104  E   0.86131  0.93019  0.66529
E105  E   0.93019  0.33471  0.13869
E106  E   0.93019  0.33471  0.86131
E107  E   0.93019  0.66529  0.13869
E108  E   0.93019  0.66529  0.86131
loop_
