data_lcv-e_I4132  hall_number: 510, V_con: 6
_audit_creation_date              2025-03-06
_audit_creation_method            'MOFbuilder_1.0'
_symmetry_space_group_name_H-M    'P1'
_symmetry_Int_Tables_number       1
_symmetry_cell_setting            triclinic
loop_
_symmetry_equiv_pos_as_xyz
  x,y,z
_cell_length_a                    36.8208
_cell_length_b                    36.8208
_cell_length_c                    36.8208
_cell_angle_alpha                 90.0
_cell_angle_beta                  90.0
_cell_angle_gamma                 90.0
loop_
_atom_site_label
_atom_site_type_symbol
_atom_site_fract_x
_atom_site_fract_y
_atom_site_fract_z
V1    V   0.01590  0.12500  0.23410
V2    V   0.01590  0.87500  0.26590
V3    V   0.01590  0.12500  0.23410
V4    V   0.01590  0.87500  0.26590
V5    V   0.12500  0.23410  0.01590
V6    V   0.12500  0.23410  0.01590
V7    V   0.12500  0.76590  0.48410
V8    V   0.23410  0.01590  0.12500
V9    V   0.23410  0.01590  0.12500
V10   V   0.23410  0.98410  0.37500
V11   V   0.26590  0.01590  0.87500
V12   V   0.26590  0.01590  0.87500
V13   V   0.26590  0.98410  0.62500
V14   V   0.37500  0.23410  0.98410
V15   V   0.37500  0.76590  0.51590
V16   V   0.48410  0.12500  0.76590
V17   V   0.48410  0.87500  0.73410
V18   V   0.51590  0.37500  0.76590
V19   V   0.51590  0.62500  0.73410
V20   V   0.62500  0.26590  0.98410
V21   V   0.62500  0.73410  0.51590
V22   V   0.73410  0.48410  0.87500
V23   V   0.73410  0.51590  0.62500
V24   V   0.76590  0.48410  0.12500
V25   V   0.76590  0.51590  0.37500
V26   V   0.87500  0.26590  0.01590
V27   V   0.87500  0.26590  0.01590
V28   V   0.87500  0.73410  0.48410
V29   V   0.98410  0.37500  0.23410
V30   V   0.98410  0.62500  0.26590
E1    E   0.00000  0.25000  0.01590
E2    E   0.00000  0.25000  0.23410
E3    E   0.00000  0.75000  0.26590
E4    E   0.00000  0.75000  0.48410
E5    E   0.01590  0.00000  0.25000
E6    E   0.05455  0.30455  0.12500
E7    E   0.05455  0.69545  0.37500
E8    E   0.05455  0.30455  0.12500
E9    E   0.05455  0.69545  0.37500
E10   E   0.07045  0.17955  0.12500
E11   E   0.07045  0.82045  0.37500
E12   E   0.07045  0.17955  0.12500
E13   E   0.07045  0.82045  0.37500
E14   E   0.12500  0.05455  0.30455
E15   E   0.12500  0.05455  0.30455
E16   E   0.12500  0.07045  0.17955
E17   E   0.12500  0.07045  0.17955
E18   E   0.12500  0.92955  0.32045
E19   E   0.12500  0.94545  0.19545
E20   E   0.17955  0.12500  0.07045
E21   E   0.17955  0.12500  0.07045
E22   E   0.17955  0.87500  0.42955
E23   E   0.19545  0.12500  0.94545
E24   E   0.19545  0.87500  0.55455
E25   E   0.23410  0.00000  0.25000
E26   E   0.25000  0.01590  0.00000
E27   E   0.25000  0.23410  0.00000
E28   E   0.25000  0.76590  0.50000
E29   E   0.25000  0.98410  0.50000
E30   E   0.26590  0.00000  0.75000
E31   E   0.30455  0.12500  0.05455
E32   E   0.30455  0.12500  0.05455
E33   E   0.30455  0.87500  0.44545
E34   E   0.32045  0.12500  0.92955
E35   E   0.32045  0.87500  0.57045
E36   E   0.37500  0.05455  0.69545
E37   E   0.37500  0.05455  0.69545
E38   E   0.37500  0.07045  0.82045
E39   E   0.37500  0.07045  0.82045
E40   E   0.37500  0.92955  0.67955
E41   E   0.37500  0.94545  0.80455
E42   E   0.42955  0.17955  0.87500
E43   E   0.42955  0.82045  0.62500
E44   E   0.44545  0.30455  0.87500
E45   E   0.44545  0.69545  0.62500
E46   E   0.48410  0.00000  0.75000
E47   E   0.50000  0.25000  0.76590
E48   E   0.50000  0.25000  0.98410
E49   E   0.50000  0.75000  0.51590
E50   E   0.50000  0.75000  0.73410
E51   E   0.51590  0.50000  0.75000
E52   E   0.55455  0.19545  0.87500
E53   E   0.55455  0.80455  0.62500
E54   E   0.57045  0.32045  0.87500
E55   E   0.57045  0.67955  0.62500
E56   E   0.62500  0.42955  0.82045
E57   E   0.62500  0.44545  0.69545
E58   E   0.62500  0.55455  0.80455
E59   E   0.62500  0.57045  0.67955
E60   E   0.67955  0.37500  0.92955
E61   E   0.67955  0.62500  0.57045
E62   E   0.69545  0.37500  0.05455
E63   E   0.69545  0.37500  0.05455
E64   E   0.69545  0.62500  0.44545
E65   E   0.73410  0.50000  0.75000
E66   E   0.75000  0.26590  0.00000
E67   E   0.75000  0.48410  0.00000
E68   E   0.75000  0.51590  0.50000
E69   E   0.75000  0.73410  0.50000
E70   E   0.76590  0.50000  0.25000
E71   E   0.80455  0.37500  0.94545
E72   E   0.80455  0.62500  0.55455
E73   E   0.82045  0.37500  0.07045
E74   E   0.82045  0.37500  0.07045
E75   E   0.82045  0.62500  0.42955
E76   E   0.87500  0.42955  0.17955
E77   E   0.87500  0.44545  0.30455
E78   E   0.87500  0.55455  0.19545
E79   E   0.87500  0.57045  0.32045
E80   E   0.92955  0.32045  0.12500
E81   E   0.92955  0.67955  0.37500
E82   E   0.94545  0.19545  0.12500
E83   E   0.94545  0.80455  0.37500
E84   E   0.98410  0.50000  0.25000
loop_
