data_lcv_I4132  hall_number: 510, V_con: 4
_audit_creation_date              2025-03-06
_audit_creation_method            'MOFbuilder_1.0'
_symmetry_space_group_name_H-M    'P1'
_symmetry_Int_Tables_number       1
_symmetry_cell_setting            triclinic
loop_
_symmetry_equiv_pos_as_xyz
  x,y,z
_cell_length_a                    32.6599
_cell_length_b                    32.6599
_cell_length_c                    32.6599
_cell_angle_alpha                 90.0
_cell_angle_beta                  90.0
_cell_angle_gamma                 90.0
loop_
_atom_site_label
_atom_site_type_symbol
_atom_site_fract_x
_atom_site_fract_y
_atom_site_fract_z
V1    V   0.00000  0.25000  0.12500
V2    V   0.00000  0.75000  0.37500
V3    V   0.12500  0.00000  0.25000
V4    V   0.25000  0.12500  0.00000
V5    V   0.25000  0.87500  0.50000
V6    V   0.37500  0.00000  0.75000
V7    V   0.50000  0.25000  0.87500
V8    V   0.50000  0.75000  0.62500
V9    V   0.62500  0.50000  0.75000
V10   V   0.75000  0.37500  0.00000
V11   V   0.75000  0.62500  0.50000
V12   V   0.87500  0.50000  0.25000
E1    E   0.06250  0.12500  0.18750
E2    E   0.06250  0.87500  0.31250
E3    E   0.12500  0.18750  0.06250
E4    E   0.12500  0.81250  0.43750
E5    E   0.18750  0.06250  0.12500
E6    E   0.18750  0.93750  0.37500
E7    E   0.31250  0.06250  0.87500
E8    E   0.31250  0.93750  0.62500
E9    E   0.37500  0.18750  0.93750
E10   E   0.37500  0.81250  0.56250
E11   E   0.43750  0.12500  0.81250
E12   E   0.43750  0.87500  0.68750
E13   E   0.56250  0.37500  0.81250
E14   E   0.56250  0.62500  0.68750
E15   E   0.62500  0.31250  0.93750
E16   E   0.62500  0.68750  0.56250
E17   E   0.68750  0.43750  0.87500
E18   E   0.68750  0.56250  0.62500
E19   E   0.81250  0.43750  0.12500
E20   E   0.81250  0.56250  0.37500
E21   E   0.87500  0.31250  0.06250
E22   E   0.87500  0.68750  0.43750
E23   E   0.93750  0.37500  0.18750
E24   E   0.93750  0.62500  0.31250
loop_
