data_lcy-a-x_P4132  hall_number: 509, V_con: 5
_audit_creation_date              2025-03-06
_audit_creation_method            'MOFbuilder_1.0'
_symmetry_space_group_name_H-M    'P1'
_symmetry_Int_Tables_number       1
_symmetry_cell_setting            triclinic
loop_
_symmetry_equiv_pos_as_xyz
  x,y,z
_cell_length_a                    37.7123
_cell_length_b                    37.7123
_cell_length_c                    37.7123
_cell_angle_alpha                 90.0
_cell_angle_beta                  90.0
_cell_angle_gamma                 90.0
loop_
_atom_site_label
_atom_site_type_symbol
_atom_site_fract_x
_atom_site_fract_y
_atom_site_fract_z
V1    V   0.00000  0.00000  0.68750
V2    V   0.00000  0.18750  0.50000
V3    V   0.00000  0.50000  0.81250
V4    V   0.00000  0.68750  0.00000
V5    V   0.06250  0.75000  0.75000
V6    V   0.18750  0.50000  0.00000
V7    V   0.25000  0.25000  0.43750
V8    V   0.25000  0.43750  0.25000
V9    V   0.25000  0.56250  0.75000
V10   V   0.25000  0.75000  0.93750
V11   V   0.31250  0.50000  0.50000
V12   V   0.43750  0.25000  0.25000
V13   V   0.50000  0.00000  0.18750
V14   V   0.50000  0.31250  0.50000
V15   V   0.50000  0.50000  0.31250
V16   V   0.50000  0.81250  0.00000
V17   V   0.56250  0.75000  0.25000
V18   V   0.68750  0.00000  0.00000
V19   V   0.75000  0.06250  0.75000
V20   V   0.75000  0.25000  0.56250
V21   V   0.75000  0.75000  0.06250
V22   V   0.75000  0.93750  0.25000
V23   V   0.81250  0.00000  0.50000
V24   V   0.93750  0.25000  0.75000
E1    E   0.00000  0.09375  0.59375
E2    E   0.00000  0.59375  0.90625
E3    E   0.03125  0.62500  0.78125
E4    E   0.03125  0.71875  0.87500
E5    E   0.03125  0.87500  0.71875
E6    E   0.09375  0.50000  0.90625
E7    E   0.09375  0.59375  0.00000
E8    E   0.12500  0.21875  0.46875
E9    E   0.12500  0.53125  0.78125
E10   E   0.12500  0.71875  0.96875
E11   E   0.15625  0.65625  0.75000
E12   E   0.15625  0.75000  0.84375
E13   E   0.21875  0.46875  0.12500
E14   E   0.21875  0.53125  0.87500
E15   E   0.21875  0.62500  0.96875
E16   E   0.25000  0.34375  0.34375
E17   E   0.25000  0.65625  0.84375
E18   E   0.28125  0.37500  0.46875
E19   E   0.28125  0.46875  0.37500
E20   E   0.28125  0.53125  0.62500
E21   E   0.34375  0.25000  0.34375
E22   E   0.34375  0.34375  0.25000
E23   E   0.37500  0.28125  0.46875
E24   E   0.37500  0.46875  0.28125
E25   E   0.37500  0.78125  0.96875
E26   E   0.40625  0.40625  0.50000
E27   E   0.40625  0.50000  0.40625
E28   E   0.46875  0.12500  0.21875
E29   E   0.46875  0.28125  0.37500
E30   E   0.46875  0.37500  0.28125
E31   E   0.50000  0.40625  0.40625
E32   E   0.50000  0.90625  0.09375
E33   E   0.53125  0.62500  0.28125
E34   E   0.53125  0.78125  0.12500
E35   E   0.53125  0.87500  0.21875
E36   E   0.59375  0.00000  0.09375
E37   E   0.59375  0.90625  0.00000
E38   E   0.62500  0.28125  0.53125
E39   E   0.62500  0.78125  0.03125
E40   E   0.62500  0.96875  0.21875
E41   E   0.65625  0.75000  0.15625
E42   E   0.65625  0.84375  0.25000
E43   E   0.71875  0.03125  0.87500
E44   E   0.71875  0.87500  0.03125
E45   E   0.71875  0.96875  0.12500
E46   E   0.75000  0.15625  0.65625
E47   E   0.75000  0.84375  0.15625
E48   E   0.78125  0.03125  0.62500
E49   E   0.78125  0.12500  0.53125
E50   E   0.78125  0.96875  0.37500
E51   E   0.84375  0.15625  0.75000
E52   E   0.84375  0.25000  0.65625
E53   E   0.87500  0.03125  0.71875
E54   E   0.87500  0.21875  0.53125
E55   E   0.87500  0.71875  0.03125
E56   E   0.90625  0.00000  0.59375
E57   E   0.90625  0.09375  0.50000
E58   E   0.96875  0.12500  0.71875
E59   E   0.96875  0.21875  0.62500
E60   E   0.96875  0.37500  0.78125
loop_
