data_lhh_P6122  hall_number: 472, V_con: 5, EC_con: 3
_audit_creation_date              2025-03-06
_audit_creation_method            'MOFbuilder_1.0'
_symmetry_space_group_name_H-M    'P1'
_symmetry_Int_Tables_number       1
_symmetry_cell_setting            triclinic
loop_
_symmetry_equiv_pos_as_xyz
  x,y,z
_cell_length_a                    34.0509
_cell_length_b                    34.0509
_cell_length_c                    17.4206
_cell_angle_alpha                 90.0
_cell_angle_beta                  90.0
_cell_angle_gamma                 120.0
loop_
_atom_site_label
_atom_site_type_symbol
_atom_site_fract_x
_atom_site_fract_y
_atom_site_fract_z
V1    V   0.00000  0.28103  0.33333
V2    V   0.00000  0.71897  0.83333
V3    V   0.28103  0.00000  0.00000
V4    V   0.28103  0.28103  0.16667
V5    V   0.71897  0.00000  0.50000
V6    V   0.71897  0.71897  0.66667
EC1    EC   0.00000  0.42529  0.83333
EC2    EC   0.00000  0.57471  0.33333
EC3    EC   0.42529  0.00000  0.50000
EC4    EC   0.42529  0.42529  0.66667
EC5    EC   0.57471  0.00000  0.00000
EC6    EC   0.57471  0.57471  0.16667
E1    E   0.00000  0.35316  0.08333
E2    E   0.00000  0.35316  0.58333
E3    E   0.00000  0.42787  0.33333
E4    E   0.00000  0.57213  0.83333
E5    E   0.00000  0.64684  0.08333
E6    E   0.00000  0.64684  0.58333
E7    E   0.14051  0.28103  0.25000
E8    E   0.14051  0.85948  0.91667
E9    E   0.14052  0.28103  0.25000
E10   E   0.14052  0.85949  0.91666
E11   E   0.28103  0.14051  0.08334
E12   E   0.28103  0.14052  0.08333
E13   E   0.35316  0.00000  0.25000
E14   E   0.35316  0.00000  0.75000
E15   E   0.35316  0.35316  0.41667
E16   E   0.35316  0.35316  0.91667
E17   E   0.42787  0.00000  0.00000
E18   E   0.42787  0.42787  0.16667
E19   E   0.57213  0.00000  0.50000
E20   E   0.57213  0.57213  0.66667
E21   E   0.64684  0.00000  0.25000
E22   E   0.64684  0.00000  0.75000
E23   E   0.64684  0.64684  0.41667
E24   E   0.64684  0.64684  0.91667
E25   E   0.71897  0.85948  0.58333
E26   E   0.71897  0.85949  0.58334
E27   E   0.85948  0.14051  0.41666
E28   E   0.85948  0.71897  0.75000
E29   E   0.85949  0.14052  0.41667
E30   E   0.85949  0.71897  0.75000
loop_
