data_lll_I4122  hall_number: 375, V_con: 7
_audit_creation_date              2025-03-06
_audit_creation_method            'MOFbuilder_1.0'
_symmetry_space_group_name_H-M    'P1'
_symmetry_Int_Tables_number       1
_symmetry_cell_setting            triclinic
loop_
_symmetry_equiv_pos_as_xyz
  x,y,z
_cell_length_a                    26.6817
_cell_length_b                    26.6817
_cell_length_c                    24.8235
_cell_angle_alpha                 90.0
_cell_angle_beta                  90.0
_cell_angle_gamma                 90.0
loop_
_atom_site_label
_atom_site_type_symbol
_atom_site_fract_x
_atom_site_fract_y
_atom_site_fract_z
V1    V   0.06828  0.67474  0.93749
V2    V   0.06828  0.82526  0.31251
V3    V   0.17474  0.56828  0.56251
V4    V   0.17474  0.93172  0.68749
V5    V   0.32526  0.56828  0.18749
V6    V   0.32526  0.93172  0.06251
V7    V   0.43172  0.67474  0.81251
V8    V   0.43172  0.82526  0.43749
V9    V   0.56828  0.17474  0.43749
V10   V   0.56828  0.32526  0.81251
V11   V   0.67474  0.06828  0.06251
V12   V   0.67474  0.43172  0.18749
V13   V   0.82526  0.06828  0.68749
V14   V   0.82526  0.43172  0.56251
V15   V   0.93172  0.17474  0.31251
V16   V   0.93172  0.32526  0.93749
E1    E   0.00000  0.00000  0.31251
E2    E   0.00000  0.00000  0.68749
E3    E   0.00000  0.50000  0.56251
E4    E   0.00000  0.50000  0.93749
E5    E   0.06828  0.75000  0.12500
E6    E   0.12151  0.62151  0.75000
E7    E   0.12151  0.69677  0.43751
E8    E   0.12151  0.80323  0.81249
E9    E   0.12151  0.87849  0.50000
E10   E   0.17474  0.75000  0.62500
E11   E   0.19677  0.62151  0.06249
E12   E   0.19677  0.69677  0.25000
E13   E   0.19677  0.80323  0.00000
E14   E   0.19677  0.87849  0.18751
E15   E   0.25000  0.56828  0.37500
E16   E   0.25000  0.67474  0.87500
E17   E   0.25000  0.82526  0.37500
E18   E   0.25000  0.93172  0.87500
E19   E   0.30323  0.62151  0.68751
E20   E   0.30323  0.69677  0.50000
E21   E   0.30323  0.80323  0.75000
E22   E   0.30323  0.87849  0.56249
E23   E   0.30323  0.69677  0.50000
E24   E   0.30323  0.80323  0.75000
E25   E   0.32526  0.75000  0.12500
E26   E   0.37849  0.62151  0.00000
E27   E   0.37849  0.69677  0.31249
E28   E   0.37849  0.80323  0.93751
E29   E   0.37849  0.87849  0.25000
E30   E   0.43172  0.75000  0.62500
E31   E   0.50000  0.00000  0.06251
E32   E   0.50000  0.00000  0.43749
E33   E   0.50000  0.50000  0.18749
E34   E   0.50000  0.50000  0.81251
E35   E   0.56828  0.25000  0.62500
E36   E   0.62151  0.12151  0.25000
E37   E   0.62151  0.19677  0.93751
E38   E   0.62151  0.30323  0.31249
E39   E   0.62151  0.37849  0.00000
E40   E   0.67474  0.25000  0.12500
E41   E   0.69677  0.12151  0.56249
E42   E   0.69677  0.19677  0.75000
E43   E   0.69677  0.30323  0.50000
E44   E   0.69677  0.30323  0.50000
E45   E   0.69677  0.37849  0.68751
E46   E   0.75000  0.06828  0.87500
E47   E   0.75000  0.17474  0.37500
E48   E   0.75000  0.32526  0.87500
E49   E   0.75000  0.43172  0.37500
E50   E   0.80323  0.12151  0.18751
E51   E   0.80323  0.19677  0.00000
E52   E   0.80323  0.30323  0.25000
E53   E   0.80323  0.30323  0.25000
E54   E   0.80323  0.37849  0.06249
E55   E   0.82526  0.25000  0.62500
E56   E   0.87849  0.12151  0.50000
E57   E   0.87849  0.19677  0.81249
E58   E   0.87849  0.30323  0.43751
E59   E   0.87849  0.37849  0.75000
E60   E   0.93172  0.25000  0.12500
loop_
