data_lta_Pm-3m  hall_number: 517, V_con: 4
_audit_creation_date              2025-03-06
_audit_creation_method            'MOFbuilder_1.0'
_symmetry_space_group_name_H-M    'P1'
_symmetry_Int_Tables_number       1
_symmetry_cell_setting            triclinic
loop_
_symmetry_equiv_pos_as_xyz
  x,y,z
_cell_length_a                    38.2842
_cell_length_b                    38.2842
_cell_length_c                    38.2842
_cell_angle_alpha                 90.0
_cell_angle_beta                  90.0
_cell_angle_gamma                 90.0
loop_
_atom_site_label
_atom_site_type_symbol
_atom_site_fract_x
_atom_site_fract_y
_atom_site_fract_z
V1    V   0.13060  0.31530  0.50000
V2    V   0.13060  0.50000  0.31530
V3    V   0.13060  0.50000  0.68470
V4    V   0.13060  0.68470  0.50000
V5    V   0.31530  0.13060  0.50000
V6    V   0.31530  0.50000  0.13060
V7    V   0.31530  0.50000  0.86940
V8    V   0.31530  0.86940  0.50000
V9    V   0.50000  0.13060  0.31530
V10   V   0.50000  0.13060  0.68470
V11   V   0.50000  0.31530  0.13060
V12   V   0.50000  0.31530  0.86940
V13   V   0.50000  0.68470  0.13060
V14   V   0.50000  0.68470  0.86940
V15   V   0.50000  0.86940  0.31530
V16   V   0.50000  0.86940  0.68470
V17   V   0.68470  0.13060  0.50000
V18   V   0.68470  0.50000  0.13060
V19   V   0.68470  0.50000  0.86940
V20   V   0.68470  0.86940  0.50000
V21   V   0.86940  0.31530  0.50000
V22   V   0.86940  0.50000  0.31530
V23   V   0.86940  0.50000  0.68470
V24   V   0.86940  0.68470  0.50000
E1    E   0.00000  0.31530  0.50000
E2    E   0.00000  0.50000  0.31530
E3    E   0.00000  0.50000  0.68470
E4    E   0.00000  0.68470  0.50000
E5    E   0.13060  0.40765  0.40765
E6    E   0.13060  0.40765  0.59235
E7    E   0.13060  0.59235  0.40765
E8    E   0.13060  0.59235  0.59235
E9    E   0.22295  0.22295  0.50000
E10   E   0.22295  0.50000  0.22295
E11   E   0.22295  0.50000  0.77705
E12   E   0.22295  0.77705  0.50000
E13   E   0.31530  0.00000  0.50000
E14   E   0.31530  0.50000  0.00000
E15   E   0.40765  0.13060  0.40765
E16   E   0.40765  0.13060  0.59235
E17   E   0.40765  0.40765  0.13060
E18   E   0.40765  0.40765  0.86940
E19   E   0.40765  0.59235  0.13060
E20   E   0.40765  0.59235  0.86940
E21   E   0.40765  0.86940  0.40765
E22   E   0.40765  0.86940  0.59235
E23   E   0.50000  0.00000  0.31530
E24   E   0.50000  0.00000  0.68470
E25   E   0.50000  0.22295  0.22295
E26   E   0.50000  0.22295  0.77705
E27   E   0.50000  0.31530  0.00000
E28   E   0.50000  0.68470  0.00000
E29   E   0.50000  0.77705  0.22295
E30   E   0.50000  0.77705  0.77705
E31   E   0.59235  0.13060  0.40765
E32   E   0.59235  0.13060  0.59235
E33   E   0.59235  0.40765  0.13060
E34   E   0.59235  0.40765  0.86940
E35   E   0.59235  0.59235  0.13060
E36   E   0.59235  0.59235  0.86940
E37   E   0.59235  0.86940  0.40765
E38   E   0.59235  0.86940  0.59235
E39   E   0.68470  0.00000  0.50000
E40   E   0.68470  0.50000  0.00000
E41   E   0.77705  0.22295  0.50000
E42   E   0.77705  0.50000  0.22295
E43   E   0.77705  0.50000  0.77705
E44   E   0.77705  0.77705  0.50000
E45   E   0.86940  0.40765  0.40765
E46   E   0.86940  0.40765  0.59235
E47   E   0.86940  0.59235  0.40765
E48   E   0.86940  0.59235  0.59235
loop_
