data_ltj_P41212  hall_number: 369, V_con: 4, EC_con: 4
_audit_creation_date              2025-03-06
_audit_creation_method            'MOFbuilder_1.0'
_symmetry_space_group_name_H-M    'P1'
_symmetry_Int_Tables_number       1
_symmetry_cell_setting            triclinic
loop_
_symmetry_equiv_pos_as_xyz
  x,y,z
_cell_length_a                    29.8991
_cell_length_b                    29.8991
_cell_length_c                    32.4435
_cell_angle_alpha                 90.0
_cell_angle_beta                  90.0
_cell_angle_gamma                 90.0
loop_
_atom_site_label
_atom_site_type_symbol
_atom_site_fract_x
_atom_site_fract_y
_atom_site_fract_z
V1    V   0.08845  0.39364  0.86890
V2    V   0.10636  0.58845  0.11890
V3    V   0.39364  0.08845  0.13110
V4    V   0.41155  0.89364  0.38110
V5    V   0.58845  0.10636  0.88110
V6    V   0.60636  0.91155  0.63110
V7    V   0.89364  0.41155  0.61890
V8    V   0.91155  0.60636  0.36890
EC1    EC   0.07794  0.89412  0.40304
EC2    EC   0.10588  0.92206  0.09696
EC3    EC   0.39412  0.42206  0.15304
EC4    EC   0.42206  0.39412  0.84696
EC5    EC   0.57794  0.60588  0.34696
EC6    EC   0.60588  0.57794  0.65304
EC7    EC   0.89412  0.07794  0.59696
EC8    EC   0.92206  0.10588  0.90304
E1    E   0.00525  0.24976  0.88597
E2    E   0.00896  0.59740  0.24390
E3    E   0.01397  0.01397  0.00000
E4    E   0.01397  0.01397  0.00000
E5    E   0.09191  0.90809  0.25000
E6    E   0.09740  0.49104  0.99390
E7    E   0.10612  0.75525  0.10793
E8    E   0.24475  0.89388  0.39207
E9    E   0.24976  0.00525  0.11403
E10   E   0.25024  0.50525  0.13597
E11   E   0.25525  0.39388  0.85793
E12   E   0.39388  0.25525  0.14207
E13   E   0.40260  0.99104  0.25610
E14   E   0.40809  0.40809  0.00000
E15   E   0.48603  0.51397  0.25000
E16   E   0.48603  0.51397  0.25000
E17   E   0.49104  0.09740  0.00610
E18   E   0.49475  0.74976  0.36403
E19   E   0.50525  0.25024  0.86403
E20   E   0.50896  0.90260  0.50610
E21   E   0.51397  0.48603  0.75000
E22   E   0.51397  0.48603  0.75000
E23   E   0.59191  0.59191  0.50000
E24   E   0.59740  0.00896  0.75610
E25   E   0.60612  0.74475  0.64207
E26   E   0.74475  0.60612  0.35793
E27   E   0.74976  0.49475  0.63597
E28   E   0.75024  0.99475  0.61403
E29   E   0.75525  0.10612  0.89207
E30   E   0.89388  0.24475  0.60793
E31   E   0.90260  0.50896  0.49390
E32   E   0.90809  0.09191  0.75000
E33   E   0.98603  0.98603  0.50000
E34   E   0.99104  0.40260  0.74390
E35   E   0.99475  0.75024  0.38597
loop_
