data_maz_P63/mmc  hall_number: 488, V_con: 4, EC_con: 4
_audit_creation_date              2025-03-06
_audit_creation_method            'MOFbuilder_1.0'
_symmetry_space_group_name_H-M    'P1'
_symmetry_Int_Tables_number       1
_symmetry_cell_setting            triclinic
loop_
_symmetry_equiv_pos_as_xyz
  x,y,z
_cell_length_a                    58.4511
_cell_length_b                    58.4511
_cell_length_c                    24.8113
_cell_angle_alpha                 90.0
_cell_angle_beta                  90.0
_cell_angle_gamma                 120.0
loop_
_atom_site_label
_atom_site_type_symbol
_atom_site_fract_x
_atom_site_fract_y
_atom_site_fract_z
V1    V   0.09587  0.36283  0.04848
V2    V   0.09587  0.36283  0.45152
V3    V   0.09587  0.73304  0.04848
V4    V   0.09587  0.73304  0.45152
V5    V   0.26696  0.36283  0.04848
V6    V   0.26696  0.36283  0.45152
V7    V   0.26696  0.90413  0.04848
V8    V   0.26696  0.90413  0.45152
V9    V   0.36283  0.09587  0.54848
V10   V   0.36283  0.09587  0.95152
V11   V   0.36283  0.26696  0.54848
V12   V   0.36283  0.26696  0.95152
V13   V   0.63717  0.73304  0.04848
V14   V   0.63717  0.73304  0.45152
V15   V   0.63717  0.90413  0.04848
V16   V   0.63717  0.90413  0.45152
V17   V   0.73304  0.09587  0.54848
V18   V   0.73304  0.09587  0.95152
V19   V   0.73304  0.63717  0.54848
V20   V   0.73304  0.63717  0.95152
V21   V   0.90413  0.26696  0.54848
V22   V   0.90413  0.26696  0.95152
V23   V   0.90413  0.63717  0.54848
V24   V   0.90413  0.63717  0.95152
EC1    EC   0.16225  0.49558  0.75000
EC2    EC   0.16225  0.66667  0.75000
EC3    EC   0.33333  0.49558  0.75000
EC4    EC   0.33333  0.83775  0.75000
EC5    EC   0.49558  0.16225  0.25000
EC6    EC   0.49558  0.33333  0.25000
EC7    EC   0.50442  0.66667  0.75000
EC8    EC   0.50442  0.83775  0.75000
EC9    EC   0.66667  0.16225  0.25000
EC10   EC   0.66667  0.50442  0.25000
EC11   EC   0.83775  0.33333  0.25000
EC12   EC   0.83775  0.50442  0.25000
E1    E   0.00000  0.31490  0.00000
E2    E   0.00000  0.31490  0.50000
E3    E   0.00000  0.68510  0.00000
E4    E   0.00000  0.68510  0.50000
E5    E   0.09587  0.36283  0.25000
E6    E   0.09587  0.73304  0.25000
E7    E   0.12906  0.42921  0.60076
E8    E   0.12906  0.42921  0.89924
E9    E   0.12906  0.69985  0.60076
E10   E   0.12906  0.69985  0.89924
E11   E   0.16225  0.58112  0.75000
E12   E   0.16225  0.58113  0.75000
E13   E   0.18141  0.36283  0.04848
E14   E   0.18141  0.36283  0.45152
E15   E   0.18141  0.81858  0.04848
E16   E   0.18141  0.81858  0.45152
E17   E   0.18142  0.36283  0.04848
E18   E   0.18142  0.36283  0.45152
E19   E   0.18142  0.81859  0.04848
E20   E   0.18142  0.81859  0.45152
E21   E   0.24779  0.49558  0.75000
E22   E   0.24779  0.75221  0.75000
E23   E   0.26696  0.36283  0.25000
E24   E   0.26696  0.90413  0.25000
E25   E   0.30015  0.42921  0.60076
E26   E   0.30015  0.42921  0.89924
E27   E   0.30015  0.87094  0.60076
E28   E   0.30015  0.87094  0.89924
E29   E   0.31490  0.00000  0.00000
E30   E   0.31490  0.00000  0.50000
E31   E   0.31490  0.31490  0.00000
E32   E   0.31490  0.31490  0.50000
E33   E   0.36283  0.09587  0.75000
E34   E   0.36283  0.18141  0.54848
E35   E   0.36283  0.18141  0.95152
E36   E   0.36283  0.18142  0.54848
E37   E   0.36283  0.18142  0.95152
E38   E   0.36283  0.26696  0.75000
E39   E   0.41887  0.58112  0.75000
E40   E   0.41887  0.83775  0.75000
E41   E   0.41888  0.58113  0.75000
E42   E   0.41888  0.83775  0.75000
E43   E   0.42921  0.12906  0.10076
E44   E   0.42921  0.12906  0.39924
E45   E   0.42921  0.30015  0.10076
E46   E   0.42921  0.30015  0.39924
E47   E   0.49558  0.24779  0.25000
E48   E   0.50442  0.75221  0.75000
E49   E   0.57079  0.69985  0.60076
E50   E   0.57079  0.69985  0.89924
E51   E   0.57079  0.87094  0.60076
E52   E   0.57079  0.87094  0.89924
E53   E   0.58112  0.16225  0.25000
E54   E   0.58112  0.41887  0.25000
E55   E   0.58113  0.16225  0.25000
E56   E   0.58113  0.41888  0.25000
E57   E   0.63717  0.73304  0.25000
E58   E   0.63717  0.81858  0.04848
E59   E   0.63717  0.81858  0.45152
E60   E   0.63717  0.81859  0.04848
E61   E   0.63717  0.81859  0.45152
E62   E   0.63717  0.90413  0.25000
E63   E   0.68510  0.00000  0.00000
E64   E   0.68510  0.00000  0.50000
E65   E   0.68510  0.68510  0.00000
E66   E   0.68510  0.68510  0.50000
E67   E   0.69985  0.12906  0.10076
E68   E   0.69985  0.12906  0.39924
E69   E   0.69985  0.57079  0.10076
E70   E   0.69985  0.57079  0.39924
E71   E   0.73304  0.09587  0.75000
E72   E   0.73304  0.63717  0.75000
E73   E   0.75221  0.24779  0.25000
E74   E   0.75221  0.50442  0.25000
E75   E   0.81858  0.18141  0.54848
E76   E   0.81858  0.18141  0.95152
E77   E   0.81858  0.63717  0.54848
E78   E   0.81858  0.63717  0.95152
E79   E   0.81859  0.18142  0.54848
E80   E   0.81859  0.18142  0.95152
E81   E   0.81859  0.63717  0.54848
E82   E   0.81859  0.63717  0.95152
E83   E   0.83775  0.41887  0.25000
E84   E   0.83775  0.41888  0.25000
E85   E   0.87094  0.30015  0.10076
E86   E   0.87094  0.30015  0.39924
E87   E   0.87094  0.57079  0.10076
E88   E   0.87094  0.57079  0.39924
E89   E   0.90413  0.26696  0.75000
E90   E   0.90413  0.63717  0.75000
loop_
