data_mer_I4/mmm  hall_number: 424, V_con: 4
_audit_creation_date              2025-03-06
_audit_creation_method            'MOFbuilder_1.0'
_symmetry_space_group_name_H-M    'P1'
_symmetry_Int_Tables_number       1
_symmetry_cell_setting            triclinic
loop_
_symmetry_equiv_pos_as_xyz
  x,y,z
_cell_length_a                    44.4661
_cell_length_b                    44.4661
_cell_length_c                    33.6686
_cell_angle_alpha                 90.0
_cell_angle_beta                  90.0
_cell_angle_gamma                 90.0
loop_
_atom_site_label
_atom_site_type_symbol
_atom_site_fract_x
_atom_site_fract_y
_atom_site_fract_z
V1    V   0.11245  0.27147  0.35149
V2    V   0.11245  0.27147  0.64851
V3    V   0.11245  0.72853  0.35149
V4    V   0.11245  0.72853  0.64851
V5    V   0.22853  0.38755  0.14851
V6    V   0.22853  0.38755  0.85149
V7    V   0.22853  0.61245  0.14851
V8    V   0.22853  0.61245  0.85149
V9    V   0.27147  0.11245  0.35149
V10   V   0.27147  0.11245  0.64851
V11   V   0.27147  0.88755  0.35149
V12   V   0.27147  0.88755  0.64851
V13   V   0.38755  0.22853  0.14851
V14   V   0.38755  0.22853  0.85149
V15   V   0.38755  0.77147  0.14851
V16   V   0.38755  0.77147  0.85149
V17   V   0.61245  0.22853  0.14851
V18   V   0.61245  0.22853  0.85149
V19   V   0.61245  0.77147  0.14851
V20   V   0.61245  0.77147  0.85149
V21   V   0.72853  0.11245  0.35149
V22   V   0.72853  0.11245  0.64851
V23   V   0.72853  0.88755  0.35149
V24   V   0.72853  0.88755  0.64851
V25   V   0.77147  0.38755  0.14851
V26   V   0.77147  0.38755  0.85149
V27   V   0.77147  0.61245  0.14851
V28   V   0.77147  0.61245  0.85149
V29   V   0.88755  0.27147  0.35149
V30   V   0.88755  0.27147  0.64851
V31   V   0.88755  0.72853  0.35149
V32   V   0.88755  0.72853  0.64851
E1    E   0.00000  0.27147  0.35149
E2    E   0.00000  0.27147  0.64851
E3    E   0.00000  0.72853  0.35149
E4    E   0.00000  0.72853  0.64851
E5    E   0.11245  0.27147  0.50000
E6    E   0.11245  0.72853  0.50000
E7    E   0.17049  0.32951  0.25000
E8    E   0.17049  0.32951  0.75000
E9    E   0.17049  0.67049  0.25000
E10   E   0.17049  0.67049  0.75000
E11   E   0.17049  0.32951  0.25000
E12   E   0.17049  0.32951  0.75000
E13   E   0.17049  0.67049  0.25000
E14   E   0.17049  0.67049  0.75000
E15   E   0.19196  0.19196  0.35149
E16   E   0.19196  0.19196  0.64851
E17   E   0.19196  0.80804  0.35149
E18   E   0.19196  0.80804  0.64851
E19   E   0.22853  0.38755  0.00000
E20   E   0.22853  0.50000  0.14851
E21   E   0.22853  0.50000  0.85149
E22   E   0.22853  0.61245  0.00000
E23   E   0.27147  0.00000  0.35149
E24   E   0.27147  0.00000  0.64851
E25   E   0.27147  0.11245  0.50000
E26   E   0.27147  0.88755  0.50000
E27   E   0.30804  0.30804  0.14851
E28   E   0.30804  0.30804  0.85149
E29   E   0.30804  0.69196  0.14851
E30   E   0.30804  0.69196  0.85149
E31   E   0.32951  0.17049  0.25000
E32   E   0.32951  0.17049  0.75000
E33   E   0.32951  0.82951  0.25000
E34   E   0.32951  0.82951  0.75000
E35   E   0.32951  0.17049  0.25000
E36   E   0.32951  0.17049  0.75000
E37   E   0.32951  0.82951  0.25000
E38   E   0.32951  0.82951  0.75000
E39   E   0.38755  0.22853  0.00000
E40   E   0.38755  0.77147  0.00000
E41   E   0.50000  0.22853  0.14851
E42   E   0.50000  0.22853  0.85149
E43   E   0.50000  0.77147  0.14851
E44   E   0.50000  0.77147  0.85149
E45   E   0.61245  0.22853  0.00000
E46   E   0.61245  0.77147  0.00000
E47   E   0.67049  0.17049  0.25000
E48   E   0.67049  0.17049  0.75000
E49   E   0.67049  0.17049  0.25000
E50   E   0.67049  0.17049  0.75000
E51   E   0.67049  0.82951  0.25000
E52   E   0.67049  0.82951  0.75000
E53   E   0.69196  0.30804  0.14851
E54   E   0.69196  0.30804  0.85149
E55   E   0.69196  0.69196  0.14851
E56   E   0.69196  0.69196  0.85149
E57   E   0.72853  0.00000  0.35149
E58   E   0.72853  0.00000  0.64851
E59   E   0.72853  0.11245  0.50000
E60   E   0.72853  0.88755  0.50000
E61   E   0.77147  0.38755  0.00000
E62   E   0.77147  0.50000  0.14851
E63   E   0.77147  0.50000  0.85149
E64   E   0.77147  0.61245  0.00000
E65   E   0.80804  0.19196  0.35149
E66   E   0.80804  0.19196  0.64851
E67   E   0.80804  0.80804  0.35149
E68   E   0.80804  0.80804  0.64851
E69   E   0.82951  0.32951  0.25000
E70   E   0.82951  0.32951  0.75000
E71   E   0.82951  0.32951  0.25000
E72   E   0.82951  0.32951  0.75000
E73   E   0.82951  0.67049  0.25000
E74   E   0.82951  0.67049  0.75000
E75   E   0.88755  0.27147  0.50000
E76   E   0.88755  0.72853  0.50000
loop_
