data_mgc-a_Fd-3m:2  hall_number: 526, V_con: 4, EC_con: 3
_audit_creation_date              2025-03-06
_audit_creation_method            'MOFbuilder_1.0'
_symmetry_space_group_name_H-M    'P1'
_symmetry_Int_Tables_number       1
_symmetry_cell_setting            triclinic
loop_
_symmetry_equiv_pos_as_xyz
  x,y,z
_cell_length_a                    76.0882
_cell_length_b                    76.0882
_cell_length_c                    76.0882
_cell_angle_alpha                 90.0
_cell_angle_beta                  90.0
_cell_angle_gamma                 90.0
loop_
_atom_site_label
_atom_site_type_symbol
_atom_site_fract_x
_atom_site_fract_y
_atom_site_fract_z
V1    V   0.01440  0.32853  0.42147
V2    V   0.01440  0.42147  0.32853
V3    V   0.01440  0.82853  0.92147
V4    V   0.01440  0.92147  0.82853
V5    V   0.07853  0.07853  0.26440
V6    V   0.07853  0.17147  0.98560
V7    V   0.07853  0.26440  0.07853
V8    V   0.07853  0.48560  0.67147
V9    V   0.07853  0.57853  0.76440
V10   V   0.07853  0.67147  0.48560
V11   V   0.07853  0.76440  0.57853
V12   V   0.07853  0.98560  0.17147
V13   V   0.17147  0.07853  0.98560
V14   V   0.17147  0.17147  0.26440
V15   V   0.17147  0.26440  0.17147
V16   V   0.17147  0.48560  0.57853
V17   V   0.17147  0.57853  0.48560
V18   V   0.17147  0.67147  0.76440
V19   V   0.17147  0.76440  0.67147
V20   V   0.17147  0.98560  0.07853
V21   V   0.23560  0.32853  0.82853
V22   V   0.23560  0.42147  0.92147
V23   V   0.23560  0.82853  0.32853
V24   V   0.23560  0.92147  0.42147
V25   V   0.26440  0.07853  0.07853
V26   V   0.26440  0.17147  0.17147
V27   V   0.26440  0.57853  0.57853
V28   V   0.26440  0.67147  0.67147
V29   V   0.32853  0.01440  0.42147
V30   V   0.32853  0.23560  0.82853
V31   V   0.32853  0.32853  0.73560
V32   V   0.32853  0.42147  0.01440
V33   V   0.32853  0.51440  0.92147
V34   V   0.32853  0.73560  0.32853
V35   V   0.32853  0.82853  0.23560
V36   V   0.32853  0.92147  0.51440
V37   V   0.42147  0.01440  0.32853
V38   V   0.42147  0.23560  0.92147
V39   V   0.42147  0.32853  0.01440
V40   V   0.42147  0.42147  0.73560
V41   V   0.42147  0.51440  0.82853
V42   V   0.42147  0.73560  0.42147
V43   V   0.42147  0.82853  0.51440
V44   V   0.42147  0.92147  0.23560
V45   V   0.48560  0.07853  0.67147
V46   V   0.48560  0.17147  0.57853
V47   V   0.48560  0.57853  0.17147
V48   V   0.48560  0.67147  0.07853
V49   V   0.51440  0.32853  0.92147
V50   V   0.51440  0.42147  0.82853
V51   V   0.51440  0.82853  0.42147
V52   V   0.51440  0.92147  0.32853
V53   V   0.57853  0.07853  0.76440
V54   V   0.57853  0.17147  0.48560
V55   V   0.57853  0.26440  0.57853
V56   V   0.57853  0.48560  0.17147
V57   V   0.57853  0.57853  0.26440
V58   V   0.57853  0.67147  0.98560
V59   V   0.57853  0.76440  0.07853
V60   V   0.57853  0.98560  0.67147
V61   V   0.67147  0.07853  0.48560
V62   V   0.67147  0.17147  0.76440
V63   V   0.67147  0.26440  0.67147
V64   V   0.67147  0.48560  0.07853
V65   V   0.67147  0.57853  0.98560
V66   V   0.67147  0.67147  0.26440
V67   V   0.67147  0.76440  0.17147
V68   V   0.67147  0.98560  0.57853
V69   V   0.73560  0.32853  0.32853
V70   V   0.73560  0.42147  0.42147
V71   V   0.73560  0.82853  0.82853
V72   V   0.73560  0.92147  0.92147
V73   V   0.76440  0.07853  0.57853
V74   V   0.76440  0.17147  0.67147
V75   V   0.76440  0.57853  0.07853
V76   V   0.76440  0.67147  0.17147
V77   V   0.82853  0.01440  0.92147
V78   V   0.82853  0.23560  0.32853
V79   V   0.82853  0.32853  0.23560
V80   V   0.82853  0.42147  0.51440
V81   V   0.82853  0.51440  0.42147
V82   V   0.82853  0.73560  0.82853
V83   V   0.82853  0.82853  0.73560
V84   V   0.82853  0.92147  0.01440
V85   V   0.92147  0.01440  0.82853
V86   V   0.92147  0.23560  0.42147
V87   V   0.92147  0.32853  0.51440
V88   V   0.92147  0.42147  0.23560
V89   V   0.92147  0.51440  0.32853
V90   V   0.92147  0.73560  0.92147
V91   V   0.92147  0.82853  0.01440
V92   V   0.92147  0.92147  0.73560
V93   V   0.98560  0.07853  0.17147
V94   V   0.98560  0.17147  0.07853
V95   V   0.98560  0.57853  0.67147
V96   V   0.98560  0.67147  0.57853
EC1    EC   0.04795  0.04795  0.38850
EC2    EC   0.04795  0.20205  0.86150
EC3    EC   0.04795  0.36150  0.70205
EC4    EC   0.04795  0.38850  0.04795
EC5    EC   0.04795  0.54795  0.88850
EC6    EC   0.04795  0.70205  0.36150
EC7    EC   0.04795  0.86150  0.20205
EC8    EC   0.04795  0.88850  0.54795
EC9    EC   0.11150  0.29795  0.79795
EC10   EC   0.11150  0.45205  0.95205
EC11   EC   0.11150  0.79795  0.29795
EC12   EC   0.11150  0.95205  0.45205
EC13   EC   0.13850  0.29795  0.45205
EC14   EC   0.13850  0.45205  0.29795
EC15   EC   0.13850  0.79795  0.95205
EC16   EC   0.13850  0.95205  0.79795
EC17   EC   0.20205  0.04795  0.86150
EC18   EC   0.20205  0.20205  0.38850
EC19   EC   0.20205  0.36150  0.54795
EC20   EC   0.20205  0.38850  0.20205
EC21   EC   0.20205  0.54795  0.36150
EC22   EC   0.20205  0.70205  0.88850
EC23   EC   0.20205  0.86150  0.04795
EC24   EC   0.20205  0.88850  0.70205
EC25   EC   0.29795  0.11150  0.79795
EC26   EC   0.29795  0.13850  0.45205
EC27   EC   0.29795  0.29795  0.61150
EC28   EC   0.29795  0.45205  0.13850
EC29   EC   0.29795  0.61150  0.29795
EC30   EC   0.29795  0.63850  0.95205
EC31   EC   0.29795  0.79795  0.11150
EC32   EC   0.29795  0.95205  0.63850
EC33   EC   0.36150  0.04795  0.70205
EC34   EC   0.36150  0.20205  0.54795
EC35   EC   0.36150  0.54795  0.20205
EC36   EC   0.36150  0.70205  0.04795
EC37   EC   0.38850  0.04795  0.04795
EC38   EC   0.38850  0.20205  0.20205
EC39   EC   0.38850  0.54795  0.54795
EC40   EC   0.38850  0.70205  0.70205
EC41   EC   0.45205  0.11150  0.95205
EC42   EC   0.45205  0.13850  0.29795
EC43   EC   0.45205  0.29795  0.13850
EC44   EC   0.45205  0.45205  0.61150
EC45   EC   0.45205  0.61150  0.45205
EC46   EC   0.45205  0.63850  0.79795
EC47   EC   0.45205  0.79795  0.63850
EC48   EC   0.45205  0.95205  0.11150
EC49   EC   0.54795  0.04795  0.88850
EC50   EC   0.54795  0.20205  0.36150
EC51   EC   0.54795  0.36150  0.20205
EC52   EC   0.54795  0.38850  0.54795
EC53   EC   0.54795  0.54795  0.38850
EC54   EC   0.54795  0.70205  0.86150
EC55   EC   0.54795  0.86150  0.70205
EC56   EC   0.54795  0.88850  0.04795
EC57   EC   0.61150  0.29795  0.29795
EC58   EC   0.61150  0.45205  0.45205
EC59   EC   0.61150  0.79795  0.79795
EC60   EC   0.61150  0.95205  0.95205
EC61   EC   0.63850  0.29795  0.95205
EC62   EC   0.63850  0.45205  0.79795
EC63   EC   0.63850  0.79795  0.45205
EC64   EC   0.63850  0.95205  0.29795
EC65   EC   0.70205  0.04795  0.36150
EC66   EC   0.70205  0.20205  0.88850
EC67   EC   0.70205  0.36150  0.04795
EC68   EC   0.70205  0.38850  0.70205
EC69   EC   0.70205  0.54795  0.86150
EC70   EC   0.70205  0.70205  0.38850
EC71   EC   0.70205  0.86150  0.54795
EC72   EC   0.70205  0.88850  0.20205
EC73   EC   0.79795  0.11150  0.29795
EC74   EC   0.79795  0.13850  0.95205
EC75   EC   0.79795  0.29795  0.11150
EC76   EC   0.79795  0.45205  0.63850
EC77   EC   0.79795  0.61150  0.79795
EC78   EC   0.79795  0.63850  0.45205
EC79   EC   0.79795  0.79795  0.61150
EC80   EC   0.79795  0.95205  0.13850
EC81   EC   0.86150  0.04795  0.20205
EC82   EC   0.86150  0.20205  0.04795
EC83   EC   0.86150  0.54795  0.70205
EC84   EC   0.86150  0.70205  0.54795
EC85   EC   0.88850  0.04795  0.54795
EC86   EC   0.88850  0.20205  0.70205
EC87   EC   0.88850  0.54795  0.04795
EC88   EC   0.88850  0.70205  0.20205
EC89   EC   0.95205  0.11150  0.45205
EC90   EC   0.95205  0.13850  0.79795
EC91   EC   0.95205  0.29795  0.63850
EC92   EC   0.95205  0.45205  0.11150
EC93   EC   0.95205  0.61150  0.95205
EC94   EC   0.95205  0.63850  0.29795
EC95   EC   0.95205  0.79795  0.13850
EC96   EC   0.95205  0.95205  0.61150
E1    E   0.00000  0.07972  0.42028
E2    E   0.00000  0.07972  0.42028
E3    E   0.00000  0.17028  0.82972
E4    E   0.00000  0.32972  0.67028
E5    E   0.00000  0.42028  0.07972
E6    E   0.00000  0.42028  0.07972
E7    E   0.00000  0.57972  0.92028
E8    E   0.00000  0.67028  0.32972
E9    E   0.00000  0.82972  0.17028
E10   E   0.00000  0.92028  0.57972
E11   E   0.01440  0.37500  0.37500
E12   E   0.01440  0.87500  0.87500
E13   E   0.03207  0.03207  0.17147
E14   E   0.03207  0.07853  0.21793
E15   E   0.03207  0.17147  0.03207
E16   E   0.03207  0.21793  0.07853
E17   E   0.03207  0.53207  0.67147
E18   E   0.03207  0.57853  0.71793
E19   E   0.03207  0.67147  0.53207
E20   E   0.03207  0.71793  0.57853
E21   E   0.03207  0.03207  0.17147
E22   E   0.03207  0.07853  0.21793
E23   E   0.03207  0.17147  0.03207
E24   E   0.03207  0.21793  0.07853
E25   E   0.03207  0.53207  0.67147
E26   E   0.03207  0.57853  0.71793
E27   E   0.03207  0.67147  0.53207
E28   E   0.03207  0.71793  0.57853
E29   E   0.06324  0.06324  0.32645
E30   E   0.06324  0.18676  0.92355
E31   E   0.06324  0.32645  0.06324
E32   E   0.06324  0.42355  0.68676
E33   E   0.06324  0.56324  0.82645
E34   E   0.06324  0.68676  0.42355
E35   E   0.06324  0.82645  0.56324
E36   E   0.06324  0.92355  0.18676
E37   E   0.07645  0.31324  0.43676
E38   E   0.07645  0.43676  0.31324
E39   E   0.07645  0.81324  0.93676
E40   E   0.07645  0.93676  0.81324
E41   E   0.07853  0.03207  0.21793
E42   E   0.07853  0.03207  0.21793
E43   E   0.07853  0.21793  0.03207
E44   E   0.07853  0.21793  0.03207
E45   E   0.07853  0.53207  0.71793
E46   E   0.07853  0.71793  0.53207
E47   E   0.07972  0.00000  0.42028
E48   E   0.07972  0.25000  0.82972
E49   E   0.07972  0.32972  0.75000
E50   E   0.07972  0.42028  0.00000
E51   E   0.07972  0.50000  0.92028
E52   E   0.07972  0.75000  0.32972
E53   E   0.07972  0.82972  0.25000
E54   E   0.07972  0.92028  0.50000
E55   E   0.07972  0.00000  0.42028
E56   E   0.07972  0.25000  0.82972
E57   E   0.07972  0.32972  0.75000
E58   E   0.07972  0.42028  0.00000
E59   E   0.07972  0.50000  0.92028
E60   E   0.07972  0.75000  0.32972
E61   E   0.07972  0.82972  0.25000
E62   E   0.07972  0.92028  0.50000
E63   E   0.12500  0.12500  0.26440
E64   E   0.12500  0.12500  0.98560
E65   E   0.12500  0.26440  0.12500
E66   E   0.12500  0.48560  0.62500
E67   E   0.12500  0.62500  0.48560
E68   E   0.12500  0.62500  0.76440
E69   E   0.12500  0.76440  0.62500
E70   E   0.12500  0.98560  0.12500
E71   E   0.17028  0.00000  0.82972
E72   E   0.17028  0.25000  0.42028
E73   E   0.17028  0.32972  0.50000
E74   E   0.17028  0.42028  0.25000
E75   E   0.17028  0.50000  0.32972
E76   E   0.17028  0.75000  0.92028
E77   E   0.17028  0.82972  0.00000
E78   E   0.17028  0.92028  0.75000
E79   E   0.17147  0.03207  0.03207
E80   E   0.17147  0.03207  0.03207
E81   E   0.17147  0.21793  0.21793
E82   E   0.17147  0.53207  0.53207
E83   E   0.17147  0.71793  0.71793
E84   E   0.17355  0.31324  0.81324
E85   E   0.17355  0.43676  0.93676
E86   E   0.17355  0.81324  0.31324
E87   E   0.17355  0.93676  0.43676
E88   E   0.18676  0.06324  0.92355
E89   E   0.18676  0.18676  0.32645
E90   E   0.18676  0.32645  0.18676
E91   E   0.18676  0.42355  0.56324
E92   E   0.18676  0.56324  0.42355
E93   E   0.18676  0.68676  0.82645
E94   E   0.18676  0.82645  0.68676
E95   E   0.18676  0.92355  0.06324
E96   E   0.21793  0.03207  0.07853
E97   E   0.21793  0.03207  0.07853
E98   E   0.21793  0.07853  0.03207
E99   E   0.21793  0.07853  0.03207
E100  E   0.21793  0.17147  0.21793
E101  E   0.21793  0.21793  0.17147
E102  E   0.21793  0.53207  0.57853
E103  E   0.21793  0.57853  0.53207
E104  E   0.21793  0.67147  0.71793
E105  E   0.21793  0.71793  0.67147
E106  E   0.23560  0.37500  0.87500
E107  E   0.23560  0.87500  0.37500
E108  E   0.25000  0.07972  0.82972
E109  E   0.25000  0.07972  0.82972
E110  E   0.25000  0.17028  0.42028
E111  E   0.25000  0.32972  0.57972
E112  E   0.25000  0.42028  0.17028
E113  E   0.25000  0.57972  0.32972
E114  E   0.25000  0.67028  0.92028
E115  E   0.25000  0.82972  0.07972
E116  E   0.25000  0.82972  0.07972
E117  E   0.25000  0.92028  0.67028
E118  E   0.26440  0.12500  0.12500
E119  E   0.26440  0.62500  0.62500
E120  E   0.28207  0.28207  0.82853
E121  E   0.28207  0.32853  0.78207
E122  E   0.28207  0.42147  0.96793
E123  E   0.28207  0.46793  0.92147
E124  E   0.28207  0.78207  0.32853
E125  E   0.28207  0.82853  0.28207
E126  E   0.28207  0.92147  0.46793
E127  E   0.28207  0.96793  0.42147
E128  E   0.31324  0.07645  0.43676
E129  E   0.31324  0.17355  0.81324
E130  E   0.31324  0.31324  0.67355
E131  E   0.31324  0.43676  0.07645
E132  E   0.31324  0.57645  0.93676
E133  E   0.31324  0.67355  0.31324
E134  E   0.31324  0.81324  0.17355
E135  E   0.31324  0.93676  0.57645
E136  E   0.32645  0.06324  0.06324
E137  E   0.32645  0.18676  0.18676
E138  E   0.32645  0.56324  0.56324
E139  E   0.32645  0.68676  0.68676
E140  E   0.32853  0.28207  0.78207
E141  E   0.32853  0.46793  0.96793
E142  E   0.32853  0.78207  0.28207
E143  E   0.32853  0.96793  0.46793
E144  E   0.32972  0.00000  0.67028
E145  E   0.32972  0.07972  0.75000
E146  E   0.32972  0.07972  0.75000
E147  E   0.32972  0.17028  0.50000
E148  E   0.32972  0.25000  0.57972
E149  E   0.32972  0.50000  0.17028
E150  E   0.32972  0.57972  0.25000
E151  E   0.32972  0.67028  0.00000
E152  E   0.32972  0.75000  0.07972
E153  E   0.32972  0.75000  0.07972
E154  E   0.37500  0.01440  0.37500
E155  E   0.37500  0.23560  0.87500
E156  E   0.37500  0.37500  0.01440
E157  E   0.37500  0.37500  0.73560
E158  E   0.37500  0.51440  0.87500
E159  E   0.37500  0.73560  0.37500
E160  E   0.37500  0.87500  0.23560
E161  E   0.37500  0.87500  0.51440
E162  E   0.42028  0.00000  0.07972
E163  E   0.42028  0.00000  0.07972
E164  E   0.42028  0.07972  0.00000
E165  E   0.42028  0.07972  0.00000
E166  E   0.42028  0.17028  0.25000
E167  E   0.42028  0.25000  0.17028
E168  E   0.42028  0.50000  0.57972
E169  E   0.42028  0.57972  0.50000
E170  E   0.42028  0.67028  0.75000
E171  E   0.42028  0.75000  0.67028
E172  E   0.42147  0.28207  0.96793
E173  E   0.42147  0.46793  0.78207
E174  E   0.42147  0.78207  0.46793
E175  E   0.42147  0.96793  0.28207
E176  E   0.42355  0.06324  0.68676
E177  E   0.42355  0.18676  0.56324
E178  E   0.42355  0.56324  0.18676
E179  E   0.42355  0.68676  0.06324
E180  E   0.43676  0.07645  0.31324
E181  E   0.43676  0.17355  0.93676
E182  E   0.43676  0.31324  0.07645
E183  E   0.43676  0.43676  0.67355
E184  E   0.43676  0.57645  0.81324
E185  E   0.43676  0.67355  0.43676
E186  E   0.43676  0.81324  0.57645
E187  E   0.43676  0.93676  0.17355
E188  E   0.46793  0.28207  0.92147
E189  E   0.46793  0.32853  0.96793
E190  E   0.46793  0.42147  0.78207
E191  E   0.46793  0.46793  0.82853
E192  E   0.46793  0.78207  0.42147
E193  E   0.46793  0.82853  0.46793
E194  E   0.46793  0.92147  0.28207
E195  E   0.46793  0.96793  0.32853
E196  E   0.48560  0.12500  0.62500
E197  E   0.48560  0.62500  0.12500
E198  E   0.50000  0.07972  0.92028
E199  E   0.50000  0.07972  0.92028
E200  E   0.50000  0.17028  0.32972
E201  E   0.50000  0.32972  0.17028
E202  E   0.50000  0.42028  0.57972
E203  E   0.50000  0.57972  0.42028
E204  E   0.50000  0.67028  0.82972
E205  E   0.50000  0.82972  0.67028
E206  E   0.50000  0.92028  0.07972
E207  E   0.50000  0.92028  0.07972
E208  E   0.51440  0.37500  0.87500
E209  E   0.51440  0.87500  0.37500
E210  E   0.53207  0.03207  0.67147
E211  E   0.53207  0.03207  0.67147
E212  E   0.53207  0.07853  0.71793
E213  E   0.53207  0.17147  0.53207
E214  E   0.53207  0.21793  0.57853
E215  E   0.53207  0.53207  0.17147
E216  E   0.53207  0.57853  0.21793
E217  E   0.53207  0.67147  0.03207
E218  E   0.53207  0.67147  0.03207
E219  E   0.53207  0.71793  0.07853
E220  E   0.56324  0.06324  0.82645
E221  E   0.56324  0.18676  0.42355
E222  E   0.56324  0.32645  0.56324
E223  E   0.56324  0.42355  0.18676
E224  E   0.56324  0.56324  0.32645
E225  E   0.56324  0.68676  0.92355
E226  E   0.56324  0.82645  0.06324
E227  E   0.56324  0.92355  0.68676
E228  E   0.57645  0.31324  0.93676
E229  E   0.57645  0.43676  0.81324
E230  E   0.57645  0.81324  0.43676
E231  E   0.57645  0.93676  0.31324
E232  E   0.57853  0.03207  0.71793
E233  E   0.57853  0.03207  0.71793
E234  E   0.57853  0.21793  0.53207
E235  E   0.57853  0.53207  0.21793
E236  E   0.57853  0.71793  0.03207
E237  E   0.57853  0.71793  0.03207
E238  E   0.57972  0.00000  0.92028
E239  E   0.57972  0.25000  0.32972
E240  E   0.57972  0.32972  0.25000
E241  E   0.57972  0.42028  0.50000
E242  E   0.57972  0.50000  0.42028
E243  E   0.57972  0.75000  0.82972
E244  E   0.57972  0.82972  0.75000
E245  E   0.57972  0.92028  0.00000
E246  E   0.62500  0.12500  0.48560
E247  E   0.62500  0.12500  0.76440
E248  E   0.62500  0.26440  0.62500
E249  E   0.62500  0.48560  0.12500
E250  E   0.62500  0.62500  0.26440
E251  E   0.62500  0.62500  0.98560
E252  E   0.62500  0.76440  0.12500
E253  E   0.62500  0.98560  0.62500
E254  E   0.67028  0.00000  0.32972
E255  E   0.67028  0.25000  0.92028
E256  E   0.67028  0.32972  0.00000
E257  E   0.67028  0.42028  0.75000
E258  E   0.67028  0.50000  0.82972
E259  E   0.67028  0.75000  0.42028
E260  E   0.67028  0.82972  0.50000
E261  E   0.67028  0.92028  0.25000
E262  E   0.67147  0.03207  0.53207
E263  E   0.67147  0.03207  0.53207
E264  E   0.67147  0.21793  0.71793
E265  E   0.67147  0.53207  0.03207
E266  E   0.67147  0.53207  0.03207
E267  E   0.67147  0.71793  0.21793
E268  E   0.67355  0.31324  0.31324
E269  E   0.67355  0.43676  0.43676
E270  E   0.67355  0.81324  0.81324
E271  E   0.67355  0.93676  0.93676
E272  E   0.68676  0.06324  0.42355
E273  E   0.68676  0.18676  0.82645
E274  E   0.68676  0.32645  0.68676
E275  E   0.68676  0.42355  0.06324
E276  E   0.68676  0.56324  0.92355
E277  E   0.68676  0.68676  0.32645
E278  E   0.68676  0.82645  0.18676
E279  E   0.68676  0.92355  0.56324
E280  E   0.71793  0.03207  0.57853
E281  E   0.71793  0.03207  0.57853
E282  E   0.71793  0.07853  0.53207
E283  E   0.71793  0.17147  0.71793
E284  E   0.71793  0.21793  0.67147
E285  E   0.71793  0.53207  0.07853
E286  E   0.71793  0.57853  0.03207
E287  E   0.71793  0.57853  0.03207
E288  E   0.71793  0.67147  0.21793
E289  E   0.71793  0.71793  0.17147
E290  E   0.73560  0.37500  0.37500
E291  E   0.73560  0.87500  0.87500
E292  E   0.75000  0.07972  0.32972
E293  E   0.75000  0.07972  0.32972
E294  E   0.75000  0.17028  0.92028
E295  E   0.75000  0.32972  0.07972
E296  E   0.75000  0.32972  0.07972
E297  E   0.75000  0.42028  0.67028
E298  E   0.75000  0.57972  0.82972
E299  E   0.75000  0.67028  0.42028
E300  E   0.75000  0.82972  0.57972
E301  E   0.75000  0.92028  0.17028
E302  E   0.76440  0.12500  0.62500
E303  E   0.76440  0.62500  0.12500
E304  E   0.78207  0.28207  0.32853
E305  E   0.78207  0.32853  0.28207
E306  E   0.78207  0.42147  0.46793
E307  E   0.78207  0.46793  0.42147
E308  E   0.78207  0.78207  0.82853
E309  E   0.78207  0.82853  0.78207
E310  E   0.78207  0.92147  0.96793
E311  E   0.78207  0.96793  0.92147
E312  E   0.81324  0.07645  0.93676
E313  E   0.81324  0.17355  0.31324
E314  E   0.81324  0.31324  0.17355
E315  E   0.81324  0.43676  0.57645
E316  E   0.81324  0.57645  0.43676
E317  E   0.81324  0.67355  0.81324
E318  E   0.81324  0.81324  0.67355
E319  E   0.81324  0.93676  0.07645
E320  E   0.82645  0.06324  0.56324
E321  E   0.82645  0.18676  0.68676
E322  E   0.82645  0.56324  0.06324
E323  E   0.82645  0.68676  0.18676
E324  E   0.82853  0.28207  0.28207
E325  E   0.82853  0.46793  0.46793
E326  E   0.82853  0.78207  0.78207
E327  E   0.82853  0.96793  0.96793
E328  E   0.82972  0.00000  0.17028
E329  E   0.82972  0.07972  0.25000
E330  E   0.82972  0.07972  0.25000
E331  E   0.82972  0.17028  0.00000
E332  E   0.82972  0.25000  0.07972
E333  E   0.82972  0.25000  0.07972
E334  E   0.82972  0.50000  0.67028
E335  E   0.82972  0.57972  0.75000
E336  E   0.82972  0.67028  0.50000
E337  E   0.82972  0.75000  0.57972
E338  E   0.87500  0.01440  0.87500
E339  E   0.87500  0.23560  0.37500
E340  E   0.87500  0.37500  0.23560
E341  E   0.87500  0.37500  0.51440
E342  E   0.87500  0.51440  0.37500
E343  E   0.87500  0.73560  0.87500
E344  E   0.87500  0.87500  0.01440
E345  E   0.87500  0.87500  0.73560
E346  E   0.92028  0.00000  0.57972
E347  E   0.92028  0.07972  0.50000
E348  E   0.92028  0.07972  0.50000
E349  E   0.92028  0.17028  0.75000
E350  E   0.92028  0.25000  0.67028
E351  E   0.92028  0.50000  0.07972
E352  E   0.92028  0.50000  0.07972
E353  E   0.92028  0.57972  0.00000
E354  E   0.92028  0.67028  0.25000
E355  E   0.92028  0.75000  0.17028
E356  E   0.92147  0.28207  0.46793
E357  E   0.92147  0.46793  0.28207
E358  E   0.92147  0.78207  0.96793
E359  E   0.92147  0.96793  0.78207
E360  E   0.92355  0.06324  0.18676
E361  E   0.92355  0.18676  0.06324
E362  E   0.92355  0.56324  0.68676
E363  E   0.92355  0.68676  0.56324
E364  E   0.93676  0.07645  0.81324
E365  E   0.93676  0.17355  0.43676
E366  E   0.93676  0.31324  0.57645
E367  E   0.93676  0.43676  0.17355
E368  E   0.93676  0.57645  0.31324
E369  E   0.93676  0.67355  0.93676
E370  E   0.93676  0.81324  0.07645
E371  E   0.93676  0.93676  0.67355
E372  E   0.96793  0.28207  0.42147
E373  E   0.96793  0.32853  0.46793
E374  E   0.96793  0.42147  0.28207
E375  E   0.96793  0.46793  0.32853
E376  E   0.96793  0.78207  0.92147
E377  E   0.96793  0.82853  0.96793
E378  E   0.96793  0.92147  0.78207
E379  E   0.96793  0.96793  0.82853
E380  E   0.98560  0.12500  0.12500
E381  E   0.98560  0.62500  0.62500
loop_
