data_mgc_Fd-3m:2  hall_number: 526, V_con: 12, EC_con: 6
_audit_creation_date              2025-03-06
_audit_creation_method            'MOFbuilder_1.0'
_symmetry_space_group_name_H-M    'P1'
_symmetry_Int_Tables_number       1
_symmetry_cell_setting            triclinic
loop_
_symmetry_equiv_pos_as_xyz
  x,y,z
_cell_length_a                    24.1209
_cell_length_b                    24.1209
_cell_length_c                    24.1209
_cell_angle_alpha                 90.0
_cell_angle_beta                  90.0
_cell_angle_gamma                 90.0
loop_
_atom_site_label
_atom_site_type_symbol
_atom_site_fract_x
_atom_site_fract_y
_atom_site_fract_z
V1    V   0.12500  0.12500  0.62500
V2    V   0.12500  0.62500  0.12500
V3    V   0.37500  0.37500  0.37500
V4    V   0.37500  0.87500  0.87500
V5    V   0.62500  0.12500  0.12500
V6    V   0.62500  0.62500  0.62500
V7    V   0.87500  0.37500  0.87500
V8    V   0.87500  0.87500  0.37500
EC1    EC   0.00000  0.00000  0.00000
EC2    EC   0.00000  0.25000  0.25000
EC3    EC   0.00000  0.50000  0.50000
EC4    EC   0.00000  0.75000  0.75000
EC5    EC   0.25000  0.00000  0.25000
EC6    EC   0.25000  0.25000  0.00000
EC7    EC   0.25000  0.50000  0.75000
EC8    EC   0.25000  0.75000  0.50000
EC9    EC   0.50000  0.00000  0.50000
EC10   EC   0.50000  0.25000  0.75000
EC11   EC   0.50000  0.50000  0.00000
EC12   EC   0.50000  0.75000  0.25000
EC13   EC   0.75000  0.00000  0.75000
EC14   EC   0.75000  0.25000  0.50000
EC15   EC   0.75000  0.50000  0.25000
EC16   EC   0.75000  0.75000  0.00000
E1    E   0.06250  0.06250  0.81250
E2    E   0.06250  0.18750  0.43750
E3    E   0.06250  0.31250  0.56250
E4    E   0.06250  0.31250  0.93750
E5    E   0.06250  0.43750  0.18750
E6    E   0.06250  0.43750  0.81250
E7    E   0.06250  0.56250  0.31250
E8    E   0.06250  0.68750  0.93750
E9    E   0.06250  0.81250  0.06250
E10   E   0.06250  0.81250  0.43750
E11   E   0.06250  0.93750  0.31250
E12   E   0.06250  0.93750  0.68750
E13   E   0.18750  0.06250  0.43750
E14   E   0.18750  0.18750  0.81250
E15   E   0.18750  0.31250  0.31250
E16   E   0.18750  0.31250  0.68750
E17   E   0.18750  0.43750  0.06250
E18   E   0.18750  0.43750  0.43750
E19   E   0.18750  0.56250  0.93750
E20   E   0.18750  0.68750  0.31250
E21   E   0.18750  0.81250  0.18750
E22   E   0.18750  0.81250  0.81250
E23   E   0.18750  0.93750  0.56250
E24   E   0.18750  0.93750  0.93750
E25   E   0.31250  0.06250  0.56250
E26   E   0.31250  0.06250  0.93750
E27   E   0.31250  0.18750  0.31250
E28   E   0.31250  0.18750  0.68750
E29   E   0.31250  0.31250  0.18750
E30   E   0.31250  0.43750  0.56250
E31   E   0.31250  0.56250  0.06250
E32   E   0.31250  0.56250  0.43750
E33   E   0.31250  0.68750  0.18750
E34   E   0.31250  0.68750  0.81250
E35   E   0.31250  0.81250  0.68750
E36   E   0.31250  0.93750  0.06250
E37   E   0.43750  0.06250  0.18750
E38   E   0.43750  0.06250  0.81250
E39   E   0.43750  0.18750  0.06250
E40   E   0.43750  0.18750  0.43750
E41   E   0.43750  0.31250  0.56250
E42   E   0.43750  0.43750  0.18750
E43   E   0.43750  0.56250  0.31250
E44   E   0.43750  0.56250  0.68750
E45   E   0.43750  0.68750  0.56250
E46   E   0.43750  0.68750  0.93750
E47   E   0.43750  0.81250  0.06250
E48   E   0.43750  0.93750  0.68750
E49   E   0.56250  0.06250  0.31250
E50   E   0.56250  0.18750  0.93750
E51   E   0.56250  0.31250  0.06250
E52   E   0.56250  0.31250  0.43750
E53   E   0.56250  0.43750  0.31250
E54   E   0.56250  0.43750  0.68750
E55   E   0.56250  0.56250  0.81250
E56   E   0.56250  0.68750  0.43750
E57   E   0.56250  0.81250  0.56250
E58   E   0.56250  0.81250  0.93750
E59   E   0.56250  0.93750  0.18750
E60   E   0.56250  0.93750  0.81250
E61   E   0.68750  0.06250  0.93750
E62   E   0.68750  0.18750  0.31250
E63   E   0.68750  0.31250  0.18750
E64   E   0.68750  0.31250  0.81250
E65   E   0.68750  0.43750  0.56250
E66   E   0.68750  0.43750  0.93750
E67   E   0.68750  0.56250  0.43750
E68   E   0.68750  0.68750  0.81250
E69   E   0.68750  0.81250  0.31250
E70   E   0.68750  0.81250  0.68750
E71   E   0.68750  0.93750  0.06250
E72   E   0.68750  0.93750  0.43750
E73   E   0.81250  0.06250  0.06250
E74   E   0.81250  0.06250  0.43750
E75   E   0.81250  0.18750  0.18750
E76   E   0.81250  0.18750  0.81250
E77   E   0.81250  0.31250  0.68750
E78   E   0.81250  0.43750  0.06250
E79   E   0.81250  0.56250  0.56250
E80   E   0.81250  0.56250  0.93750
E81   E   0.81250  0.68750  0.31250
E82   E   0.81250  0.68750  0.68750
E83   E   0.81250  0.81250  0.18750
E84   E   0.81250  0.93750  0.56250
E85   E   0.93750  0.06250  0.31250
E86   E   0.93750  0.06250  0.68750
E87   E   0.93750  0.18750  0.56250
E88   E   0.93750  0.18750  0.93750
E89   E   0.93750  0.31250  0.06250
E90   E   0.93750  0.43750  0.68750
E91   E   0.93750  0.56250  0.18750
E92   E   0.93750  0.56250  0.81250
E93   E   0.93750  0.68750  0.06250
E94   E   0.93750  0.68750  0.43750
E95   E   0.93750  0.81250  0.56250
E96   E   0.93750  0.93750  0.18750
loop_
