data_mil101_Fd-3m  hall_number: 526, V_con: 6
_audit_creation_date              2025-03-11
_audit_creation_method            'MOFbuilder_1.0'
_symmetry_space_group_name_H-M    'P1'
_symmetry_Int_Tables_number       1
_symmetry_cell_setting            triclinic
loop_
_symmetry_equiv_pos_as_xyz
  x,y,z
_cell_length_a                    300.0
_cell_length_b                    300.0
_cell_length_c                    300.0
_cell_angle_alpha                 90.0
_cell_angle_beta                  90.0
_cell_angle_gamma                 90.0
loop_
_atom_site_label
_atom_site_type_symbol
_atom_site_fract_x
_atom_site_fract_y
_atom_site_fract_z
V1    V   0.95000  0.80000  0.04400
V2    V   0.90800  0.75000  0.15800
V3    V   1.00000  0.84200  0.15800
V4    V   0.80000  0.95000  0.04400
V5    V   0.87500  0.87500  0.12500
V6    V   0.75000  0.90800  0.15800
V7    V   0.84500  0.98700  0.17800
V8    V   0.20600  0.80000  0.30000
V9    V   0.09200  0.75000  0.34200
V10   V   0.09200  0.84200  0.25000
V11   V   0.05000  0.95600  0.20000
V12   V   0.20000  0.95600  0.05000
V13   V   0.12500  0.87500  0.12500
V14   V   0.14800  0.84000  0.00700
V15   V   0.80000  0.30000  0.20600
V16   V   0.84200  0.25000  0.09200
V17   V   0.75000  0.34200  0.09200
V18   V   0.95600  0.20000  0.05000
V19   V   0.87500  0.12500  0.12500
V20   V   0.84000  0.14900  0.00700
V21   V   0.05000  0.29400  0.05000
V22   V   0.12500  0.37500  0.12500
V23   V   0.10200  0.41000  0.00700
V24   V   0.87500  0.37500  0.12500
V25   V   0.95000  0.45000  0.20600
V26   V   0.90800  0.50000  0.09200
V27   V   0.00000  0.40800  0.09200
V28   V   0.79400  0.55000  0.05000
V29   V   0.87500  0.62500  0.12500
V30   V   0.91000  0.60100  0.00700
V31   V   0.58000  0.58000  0.17000
V32   V   0.67000  0.67000  0.17000
V33   V   0.67000  0.58000  0.08000
V34   V   0.58000  0.67000  0.08000
V35   V   0.79400  0.70000  0.20000
V36   V   0.70000  0.79400  0.20000
V37   V   0.70000  0.70000  0.29400
V38   V   0.87500  0.62500  0.37500
V39   V   0.95000  0.54400  0.30000
V40   V   1.00000  0.65800  0.34200
V41   V   0.90800  0.65800  0.25000
V42   V   0.92000  0.33000  0.42000
V43   V   0.92000  0.42000  0.33000
V44   V   0.83000  0.33000  0.33000
V45   V   0.83000  0.42000  0.42000
V46   V   0.80000  0.54400  0.45000
V47   V   0.75000  0.65800  0.40800
V48   V   0.84200  0.65800  0.50000
V49   V   0.80000  0.45000  0.54400
V50   V   0.70600  0.45000  0.45000
V51   V   0.12500  0.87500  0.37500
V52   V   0.09200  0.90800  0.50000
V53   V   0.07200  0.98700  0.40500
V54   V   0.20600  0.95000  0.45000
V55   V   0.30000  0.95000  0.54400
V56   V   0.12500  0.37500  0.37500
V57   V   0.04400  0.45000  0.30000
V58   V   0.12500  0.62500  0.37500
V59   V   0.20000  0.55000  0.45600
V60   V   0.15800  0.50000  0.34200
V61   V   0.25000  0.59200  0.34200
V62   V   0.08000  0.58000  0.67000
V63   V   0.17000  0.58000  0.58000
V64   V   0.17000  0.67000  0.67000
V65   V   0.08000  0.67000  0.58000
V66   V   0.95600  0.70000  0.55000
V67   V   0.05000  0.79400  0.55000
V68   V   0.05000  0.70000  0.45600
V69   V   0.70000  0.95600  0.55000
V70   V   0.65800  0.84200  0.50000
V71   V   0.75000  0.84200  0.59200
V72   V   0.62500  0.87500  0.62500
V73   V   0.55000  0.95600  0.70000
V74   V   0.50000  0.84200  0.65800
V75   V   0.59200  0.84200  0.75000
V76   V   0.33000  0.83000  0.33000
V77   V   0.42000  0.92000  0.33000
V78   V   0.33000  0.92000  0.42000
V79   V   0.42000  0.83000  0.42000
V80   V   0.62500  0.87500  0.37500
V81   V   0.65800  0.90800  0.25000
V82   V   0.67800  0.98700  0.34500
V83   V   0.65800  0.75000  0.40800
V84   V   0.54400  0.80000  0.45000
V85   V   0.45000  0.70600  0.45000
V86   V   0.45000  0.80000  0.54400
V87   V   0.55000  0.79400  0.05000
V88   V   0.62500  0.87500  0.12500
V89   V   0.60200  0.91000  0.00700
V90   V   0.37500  0.87500  0.12500
V91   V   0.50000  0.90800  0.09200
V92   V   0.40500  0.98700  0.07200
V93   V   0.54400  0.95000  0.30000
V94   V   0.45000  0.95000  0.20600
V95   V   0.45600  0.55000  0.20000
V96   V   0.34200  0.50000  0.15800
V97   V   0.34200  0.59200  0.25000
V98   V   0.37500  0.62500  0.37500
V99   V   0.30000  0.70600  0.30000
V100  V   0.30000  0.80000  0.20600
V101  V   0.34200  0.75000  0.09200
V102  V   0.25000  0.84200  0.09200
V103  V   0.45600  0.70000  0.05000
V104  V   0.37500  0.62500  0.12500
V105  V   0.34000  0.64900  0.00700
V106  V   0.29400  0.05000  0.05000
V107  V   0.37500  0.12500  0.12500
V108  V   0.41000  0.10200  0.00700
V109  V   0.40800  0.00000  0.09200
V110  V   0.65800  0.00000  0.34200
V111  V   0.55000  0.55000  0.29400
V112  V   0.59200  0.50000  0.40800
V113  V   0.50000  0.59200  0.40800
V114  V   0.62500  0.62500  0.37500
V115  V   0.87500  0.12500  0.87500
V116  V   0.84200  0.15800  1.00000
V117  V   0.80000  0.04400  0.95000
V118  V   0.62500  0.12500  0.87500
V119  V   0.70000  0.20000  0.79400
V120  V   0.65800  0.25000  0.90800
V121  V   0.75000  0.15800  0.90800
V122  V   0.84200  1.00000  0.15800
V123  V   0.92000  0.92000  0.83000
V124  V   0.83000  0.92000  0.92000
V125  V   0.92000  0.83000  0.92000
V126  V   0.83000  0.83000  0.83000
V127  V   0.62500  0.87500  0.87500
V128  V   0.70600  0.95000  0.95000
V129  V   0.59200  1.00000  0.90800
V130  V   0.59200  0.90800  1.00000
V131  V   0.87500  0.37500  0.62500
V132  V   0.95000  0.30000  0.54400
V133  V   0.90800  0.25000  0.65800
V134  V   1.00000  0.34200  0.65800
V135  V   0.95000  0.04400  0.80000
V136  V   1.00000  0.15800  0.84200
V137  V   0.90800  0.15800  0.75000
V138  V   0.87500  0.12500  0.62500
V139  V   0.79400  0.20000  0.70000
V140  V   0.80000  0.20600  0.30000
V141  V   0.75000  0.09200  0.34200
V142  V   0.84200  0.09200  0.25000
V143  V   0.87500  0.12500  0.37500
V144  V   0.95000  0.20600  0.45000
V145  V   1.00000  0.09200  0.40800
V146  V   0.90800  0.09200  0.50000
V147  V   0.87500  0.87500  0.62500
V148  V   0.95000  0.95000  0.70600
V149  V   0.90800  1.00000  0.59200
V150  V   1.00000  0.90800  0.59200
V151  V   0.79400  0.05000  0.55000
V152  V   0.70000  0.05000  0.45600
V153  V   0.40800  0.25000  0.15800
V154  V   0.45000  0.30000  0.04400
V155  V   0.37500  0.37500  0.12500
V156  V   0.30000  0.45000  0.04400
V157  V   0.20000  0.29400  0.20000
V158  V   0.25000  0.40800  0.15800
V159  V   0.15800  0.40800  0.25000
V160  V   0.29400  0.20000  0.20000
V161  V   0.20000  0.20000  0.29400
V162  V   0.62500  0.37500  0.37500
V163  V   0.70600  0.30000  0.30000
V164  V   0.62500  0.12500  0.37500
V165  V   0.59200  0.25000  0.34200
V166  V   0.55000  0.20000  0.45600
V167  V   0.55000  0.45600  0.20000
V168  V   0.50000  0.34200  0.15800
V169  V   0.59200  0.34200  0.25000
V170  V   0.70000  0.45600  0.05000
V171  V   0.62500  0.37500  0.12500
V172  V   0.64900  0.34000  0.00700
V173  V   0.70000  0.29400  0.70000
V174  V   0.65800  0.40800  0.75000
V175  V   0.75000  0.40800  0.65800
V176  V   0.62500  0.37500  0.62500
V177  V   0.55000  0.29400  0.55000
V178  V   0.50000  0.40800  0.59200
V179  V   0.59200  0.40800  0.50000
V180  V   0.29400  0.55000  0.55000
V181  V   0.40800  0.50000  0.59200
V182  V   0.40800  0.59200  0.50000
V183  V   0.37500  0.62500  0.62500
V184  V   0.40800  0.75000  0.65800
V185  V   0.29400  0.70000  0.70000
V186  V   0.42000  0.33000  0.92000
V187  V   0.33000  0.33000  0.83000
V188  V   0.33000  0.42000  0.92000
V189  V   0.42000  0.42000  0.83000
V190  V   0.45000  0.54400  0.80000
V191  V   0.40800  0.65800  0.75000
V192  V   0.50000  0.65800  0.84200
V193  V   0.54400  0.45000  0.80000
V194  V   0.45000  0.45000  0.70600
V195  V   0.37500  0.12500  0.62500
V196  V   0.45600  0.20000  0.55000
V197  V   0.37500  0.37500  0.62500
V198  V   0.34200  0.25000  0.59200
V199  V   0.30000  0.30000  0.70600
V200  V   0.30000  0.04400  0.45000
V201  V   0.34200  0.15800  0.50000
V202  V   0.25000  0.15800  0.40800
V203  V   0.37500  0.12500  0.37500
V204  V   0.45000  0.04400  0.30000
V205  V   0.50000  0.15800  0.34200
V206  V   0.40800  0.15800  0.25000
V207  V   0.30000  0.20600  0.80000
V208  V   0.34200  0.09200  0.75000
V209  V   0.25000  0.09200  0.84200
V210  V   0.37500  0.12500  0.87500
V211  V   0.45000  0.20600  0.95000
V212  V   0.40800  0.09200  1.00000
V213  V   0.50000  0.09200  0.90800
V214  V   0.67000  0.08000  0.58000
V215  V   0.58000  0.17000  0.58000
V216  V   0.58000  0.08000  0.67000
V217  V   0.67000  0.17000  0.67000
V218  V   0.45600  0.05000  0.70000
V219  V   0.55000  0.05000  0.79400
V220  V   0.80000  0.80000  0.70600
V221  V   0.84200  0.75000  0.59200
V222  V   0.90500  0.98700  0.57200
V223  V   0.98700  0.90500  0.57200
V224  V   0.95600  0.55000  0.70000
V225  V   0.84200  0.50000  0.65800
V226  V   0.84200  0.59200  0.75000
V227  V   0.87500  0.62500  0.62500
V228  V   0.98700  0.67800  0.34500
V229  V   0.98700  0.84500  0.17800
V230  V   0.98700  0.40500  0.07200
V231  V   0.20600  0.30000  0.80000
V232  V   0.09200  0.25000  0.84200
V233  V   0.09200  0.34200  0.75000
V234  V   0.12500  0.37500  0.87500
V235  V   0.20600  0.45000  0.95000
V236  V   0.09200  0.50000  0.90800
V237  V   0.09200  0.40800  1.00000
V238  V   0.12500  0.62500  0.87500
V239  V   0.05000  0.45600  0.70000
V240  V   0.05000  0.55000  0.79400
V241  V   0.54400  0.30000  0.95000
V242  V   0.65800  0.34200  1.00000
V243  V   0.62500  0.37500  0.87500
V244  V   0.65800  0.50000  0.84200
V245  V   0.30000  0.54400  0.95000
V246  V   0.25000  0.65800  0.90800
V247  V   0.34200  0.65800  1.00000
V248  V   0.37500  0.62500  0.87500
V249  V   0.12500  0.87500  0.62500
V250  V   0.20000  0.70000  0.79400
V251  V   0.20000  0.79400  0.70000
V252  V   0.37500  0.87500  0.62500
V253  V   0.25000  0.90800  0.65800
V254  V   0.34500  0.98700  0.67800
V255  V   0.00000  0.90800  0.59200
V256  V   0.04400  0.95000  0.80000
V257  V   0.80000  0.70600  0.80000
V258  V   0.70600  0.80000  0.80000
V259  V   0.95000  0.70600  0.95000
V260  V   0.87500  0.62500  0.87500
V261  V   0.90800  0.59200  1.00000
V262  V   0.98700  0.57200  0.90500
V263  V   0.55000  0.70000  0.95600
V264  V   0.59200  0.75000  0.84200
V265  V   0.62500  0.62500  0.87500
V266  V   0.75000  0.59200  0.84200
V267  V   0.70000  0.55000  0.95600
V268  V   0.04400  0.80000  0.95000
V269  V   0.15800  0.84200  1.00000
V270  V   0.15800  0.75000  0.90800
V271  V   0.34200  0.00000  0.65800
V272  V   0.12500  0.87500  0.87500
V273  V   0.15800  1.00000  0.84200
V274  V   0.15800  0.90800  0.75000
V275  V   0.40800  1.00000  0.09200
V276  V   0.12500  0.12500  0.87500
V277  V   0.20000  0.05000  0.95600
V278  V   0.95600  0.05000  0.20000
V279  V   0.98700  0.07200  0.40500
V280  V   0.98700  0.34500  0.67800
V281  V   0.98700  0.17800  0.84500
V282  V   0.04400  0.30000  0.45000
V283  V   0.15800  0.25000  0.40800
V284  V   0.15800  0.34200  0.50000
V285  V   0.12500  0.37500  0.62500
V286  V   0.25000  0.34200  0.59200
V287  V   0.20000  0.45600  0.55000
V288  V   0.00000  0.84200  0.15800
V289  V   0.09200  1.00000  0.40800
V290  V   0.12500  0.12500  0.37500
V291  V   0.08000  0.08000  0.17000
V292  V   0.17000  0.17000  0.17000
V293  V   0.17000  0.08000  0.08000
V294  V   0.08000  0.17000  0.08000
V295  V   0.05000  0.05000  0.29400
V296  V   0.65800  1.00000  0.34200
V297  V   0.34200  1.00000  0.65800
V298  V   0.34500  0.67800  0.98700
V299  V   0.09200  0.00000  0.40800
V300  V   0.90500  0.57200  0.98700
V301  V   0.90800  0.00000  0.59200
V302  V   0.40500  0.07200  0.98700
V303  V   0.59200  0.00000  0.90800
V304  V   0.57200  0.90500  0.98700
V305  V   0.84500  0.17800  0.98700
V306  V   0.67800  0.34500  0.98700
V307  V   0.57200  0.98700  0.90500
V308  V   0.15800  0.00000  0.84200
V309  V   0.05000  0.20000  0.95600
V310  V   0.07200  0.40500  0.98700
V311  V   0.65800  0.34200  0.00000
V312  V   0.34200  0.65800  0.00000
V313  V   0.17800  0.98700  0.84500
V314  V   1.00000  0.59200  0.90800
V315  V   1.00000  0.40800  0.09200
V316  V   0.00000  0.65800  0.34200
V317  V   0.00000  0.34200  0.65800
V318  V   0.00600  0.91000  0.60200
V319  V   0.00600  0.10200  0.41000
V320  V   0.00700  0.64900  0.34000
V321  V   0.00600  0.41000  0.10200
V322  V   0.00700  0.84000  0.14900
V323  V   0.00600  0.60100  0.91000
V324  V   0.00600  0.14900  0.84000
V325  V   0.00600  0.34000  0.64900
V326  V   0.17800  0.84500  0.98700
V327  V   0.00000  0.59200  0.90800
V328  V   0.41000  0.00700  0.10200
V329  V   0.84000  0.00700  0.14900
V330  V   0.91000  0.00700  0.60200
V331  V   0.64900  0.00700  0.34000
V332  V   0.34000  0.00700  0.64900
V333  V   0.14900  0.00700  0.84000
V334  V   0.60100  0.00600  0.91000
V335  V   0.10200  0.00600  0.41000
V336  V   0.00000  0.09200  0.40800
V337  V   0.00000  0.15800  0.84200
E1    E   0.17600  0.17600  0.23700
E2    E   0.32400  0.32400  0.76300
E3    E   0.15500  0.98800  0.43000
E4    E   0.67400  0.91000  0.91000
E5    E   0.12500  0.12500  0.06800
E6    E   0.10400  0.93900  0.38300
E7    E   0.08200  0.96000  0.46100
E8    E   0.24700  0.24700  0.80800
E9    E   0.87500  0.87500  0.93200
E10   E   0.82400  0.82400  0.76300
E11   E   0.67600  0.67600  0.23700
E12   E   0.84500  0.01200  0.57000
E13   E   0.32600  0.09000  0.09000
E14   E   0.89600  0.06100  0.61700
E15   E   0.91800  0.03900  0.54000
E16   E   0.75300  0.75300  0.19200
E17   E   0.57400  0.07400  0.73700
E18   E   0.42600  0.92600  0.26300
E19   E   0.59500  0.26200  0.93000
E20   E   0.07600  0.34000  0.41000
E21   E   0.62500  0.12500  0.56800
E22   E   0.64600  0.31100  0.88300
E23   E   0.66800  0.29000  0.96100
E24   E   0.50300  0.00300  0.30800
E25   E   0.87500  0.37500  0.43200
E26   E   0.40500  0.73800  0.07000
E27   E   0.92400  0.66000  0.59000
E28   E   0.37500  0.87500  0.43200
E29   E   0.35400  0.68900  0.11700
E30   E   0.33200  0.71000  0.04000
E31   E   0.49700  0.99700  0.69200
E32   E   0.12500  0.62500  0.56800
E33   E   0.07400  0.67600  0.51300
E34   E   0.92600  0.82400  0.98700
E35   E   0.09500  0.48800  0.32000
E36   E   0.57600  0.41000  0.84000
E37   E   0.12500  0.62500  0.68200
E38   E   0.14600  0.43900  0.36700
E39   E   0.16800  0.46100  0.29000
E40   E   0.00300  0.74700  0.94200
E41   E   0.37500  0.37500  0.81800
E42   E   0.92600  0.32400  0.48700
E43   E   0.07400  0.17600  0.01300
E44   E   0.90500  0.51200  0.68000
E45   E   0.42400  0.59000  0.16000
E46   E   0.87500  0.37500  0.31800
E47   E   0.85400  0.56100  0.63300
E48   E   0.83200  0.54000  0.71000
E49   E   0.99700  0.25300  0.05800
E50   E   0.62500  0.62500  0.18200
E51   E   0.67600  0.57400  0.01300
E52   E   0.82400  0.42600  0.48700
E53   E   0.65500  0.76200  0.82000
E54   E   0.17400  0.84000  0.34000
E55   E   0.60400  0.81100  0.86700
E56   E   0.58200  0.79000  0.79000
E57   E   0.74700  0.50300  0.44200
E58   E   0.37500  0.87500  0.31800
E59   E   0.32400  0.42600  0.98700
E60   E   0.17600  0.57400  0.51300
E61   E   0.34500  0.23800  0.18000
E62   E   0.82600  0.16000  0.66000
E63   E   0.39600  0.18900  0.13300
E64   E   0.41800  0.21000  0.21000
E65   E   0.25300  0.49700  0.55800
E66   E   0.62500  0.12500  0.68200
E67   E   0.23700  0.17600  0.17600
E68   E   0.76300  0.32400  0.32400
E69   E   0.43000  0.15500  0.98800
E70   E   0.91000  0.67400  0.91000
E71   E   0.06800  0.12500  0.12500
E72   E   0.38300  0.10400  0.93900
E73   E   0.46000  0.08200  0.96000
E74   E   0.80800  0.24700  0.24700
E75   E   0.93200  0.87500  0.87500
E76   E   0.76300  0.82400  0.82400
E77   E   0.23700  0.67600  0.67600
E78   E   0.57000  0.84500  0.01200
E79   E   0.09000  0.32600  0.09000
E80   E   0.61700  0.89600  0.06100
E81   E   0.54000  0.91800  0.04000
E82   E   0.19200  0.75300  0.75300
E83   E   0.73700  0.57400  0.07400
E84   E   0.26300  0.42600  0.92600
E85   E   0.93000  0.59500  0.26200
E86   E   0.41000  0.07600  0.34000
E87   E   0.56800  0.62500  0.12500
E88   E   0.88300  0.64600  0.31100
E89   E   0.96100  0.66800  0.29000
E90   E   0.30800  0.50300  0.00300
E91   E   0.43200  0.87500  0.37500
E92   E   0.07000  0.40500  0.73800
E93   E   0.59000  0.92400  0.66000
E94   E   0.43200  0.37500  0.87500
E95   E   0.11700  0.35400  0.68900
E96   E   0.04000  0.33200  0.71000
E97   E   0.69200  0.49700  0.99700
E98   E   0.56800  0.12500  0.62500
E99   E   0.51300  0.07400  0.67600
E100  E   0.98700  0.92600  0.82400
E101  E   0.32000  0.09500  0.48800
E102  E   0.84000  0.57600  0.41000
E103  E   0.68200  0.12500  0.62500
E104  E   0.36700  0.14600  0.43900
E105  E   0.29000  0.16800  0.46100
E106  E   0.94200  0.00300  0.74700
E107  E   0.81800  0.37500  0.37500
E108  E   0.48700  0.92600  0.32400
E109  E   0.01300  0.07400  0.17600
E110  E   0.68000  0.90500  0.51200
E111  E   0.16000  0.42400  0.59000
E112  E   0.31800  0.87500  0.37500
E113  E   0.63300  0.85400  0.56100
E114  E   0.71000  0.83200  0.54000
E115  E   0.05800  0.99700  0.25300
E116  E   0.18200  0.62500  0.62500
E117  E   0.01300  0.67600  0.57400
E118  E   0.48700  0.82400  0.42600
E119  E   0.82000  0.65500  0.76200
E120  E   0.34000  0.17400  0.84000
E121  E   0.86700  0.60400  0.81100
E122  E   0.79000  0.58200  0.79000
E123  E   0.44200  0.74700  0.50300
E124  E   0.31800  0.37500  0.87500
E125  E   0.98700  0.32400  0.42600
E126  E   0.51300  0.17600  0.57400
E127  E   0.18000  0.34500  0.23800
E128  E   0.66000  0.82600  0.16000
E129  E   0.13300  0.39600  0.18900
E130  E   0.21100  0.41800  0.21000
E131  E   0.55800  0.25300  0.49700
E132  E   0.68200  0.62500  0.12500
E133  E   0.17600  0.23700  0.17600
E134  E   0.32400  0.76300  0.32400
E135  E   0.98800  0.43000  0.15500
E136  E   0.91000  0.91000  0.67400
E137  E   0.12500  0.06800  0.12500
E138  E   0.93900  0.38300  0.10400
E139  E   0.96000  0.46100  0.08200
E140  E   0.24700  0.80800  0.24700
E141  E   0.87500  0.93200  0.87500
E142  E   0.82400  0.76300  0.82400
E143  E   0.67600  0.23700  0.67600
E144  E   0.01200  0.57000  0.84500
E145  E   0.09000  0.09000  0.32600
E146  E   0.06100  0.61700  0.89600
E147  E   0.04000  0.54000  0.91800
E148  E   0.75300  0.19200  0.75300
E149  E   0.07400  0.73700  0.57400
E150  E   0.92600  0.26300  0.42600
E151  E   0.26200  0.93000  0.59500
E152  E   0.34000  0.41000  0.07600
E153  E   0.12500  0.56800  0.62500
E154  E   0.31100  0.88300  0.64600
E155  E   0.29000  0.96100  0.66800
E156  E   0.00300  0.30800  0.50300
E157  E   0.37500  0.43200  0.87500
E158  E   0.73800  0.07000  0.40500
E159  E   0.66000  0.59000  0.92400
E160  E   0.87500  0.43200  0.37500
E161  E   0.68900  0.11700  0.35400
E162  E   0.71000  0.04000  0.33200
E163  E   0.99700  0.69200  0.49700
E164  E   0.62500  0.56800  0.12500
E165  E   0.67600  0.51300  0.07400
E166  E   0.82400  0.98700  0.92600
E167  E   0.48800  0.32000  0.09500
E168  E   0.41000  0.84000  0.57600
E169  E   0.62500  0.68200  0.12500
E170  E   0.43900  0.36700  0.14600
E171  E   0.46100  0.29000  0.16800
E172  E   0.74700  0.94200  0.00300
E173  E   0.37500  0.81800  0.37500
E174  E   0.32400  0.48700  0.92600
E175  E   0.17600  0.01300  0.07400
E176  E   0.51200  0.68000  0.90500
E177  E   0.59000  0.16000  0.42400
E178  E   0.37500  0.31800  0.87500
E179  E   0.56100  0.63300  0.85400
E180  E   0.54000  0.71000  0.83200
E181  E   0.25300  0.05800  0.99700
E182  E   0.62500  0.18200  0.62500
E183  E   0.57400  0.01300  0.67600
E184  E   0.42600  0.48700  0.82400
E185  E   0.76200  0.82000  0.65500
E186  E   0.84000  0.34000  0.17400
E187  E   0.81100  0.86700  0.60400
E188  E   0.79000  0.79000  0.58200
E189  E   0.50300  0.44200  0.74700
E190  E   0.87500  0.31800  0.37500
E191  E   0.42600  0.98700  0.32400
E192  E   0.57400  0.51300  0.17600
E193  E   0.23800  0.18000  0.34500
E194  E   0.16000  0.66000  0.82600
E195  E   0.18900  0.13300  0.39600
E196  E   0.21100  0.21100  0.41800
E197  E   0.49700  0.55800  0.25300
E198  E   0.12500  0.68200  0.62500
E199  E   0.92600  0.42600  0.26300
E200  E   0.07400  0.57400  0.73700
E201  E   0.73800  0.40500  0.07000
E202  E   0.66000  0.92400  0.59000
E203  E   0.68900  0.35400  0.11700
E204  E   0.71000  0.33200  0.04000
E205  E   0.99700  0.49700  0.69200
E206  E   0.26200  0.59500  0.93000
E207  E   0.34000  0.07600  0.41000
E208  E   0.31100  0.64600  0.88300
E209  E   0.29000  0.66800  0.96100
E210  E   0.00300  0.50300  0.30800
E211  E   0.01200  0.84500  0.57000
E212  E   0.06100  0.89600  0.61700
E213  E   0.04000  0.91800  0.54000
E214  E   0.98800  0.15500  0.43000
E215  E   0.93900  0.10400  0.38300
E216  E   0.96000  0.08200  0.46100
E217  E   0.42600  0.32400  0.98700
E218  E   0.57400  0.17600  0.51300
E219  E   0.23800  0.34500  0.18000
E220  E   0.16000  0.82600  0.66000
E221  E   0.18900  0.39600  0.13300
E222  E   0.49700  0.25300  0.55800
E223  E   0.57400  0.67600  0.01300
E224  E   0.42600  0.82400  0.48700
E225  E   0.76200  0.65500  0.82000
E226  E   0.84000  0.17400  0.34000
E227  E   0.81100  0.60400  0.86700
E228  E   0.50300  0.74700  0.44200
E229  E   0.32400  0.92600  0.48700
E230  E   0.17600  0.07400  0.01300
E231  E   0.51200  0.90500  0.68000
E232  E   0.59000  0.42400  0.16000
E233  E   0.56100  0.85400  0.63300
E234  E   0.54000  0.83200  0.71000
E235  E   0.25300  0.99700  0.05800
E236  E   0.67600  0.07400  0.51300
E237  E   0.82400  0.92600  0.98700
E238  E   0.48800  0.09500  0.32000
E239  E   0.41000  0.57600  0.84000
E240  E   0.43900  0.14600  0.36700
E241  E   0.46100  0.16800  0.29000
E242  E   0.74700  0.00300  0.94200
E243  E   0.92600  0.48700  0.32400
E244  E   0.07400  0.01300  0.17600
E245  E   0.90500  0.68000  0.51200
E246  E   0.42400  0.16000  0.59000
E247  E   0.85400  0.63300  0.56100
E248  E   0.83200  0.71000  0.54000
E249  E   0.99700  0.05800  0.25300
E250  E   0.07400  0.51300  0.67600
E251  E   0.92600  0.98700  0.82400
E252  E   0.09500  0.32000  0.48800
E253  E   0.57600  0.84000  0.41000
E254  E   0.14600  0.36700  0.43900
E255  E   0.16800  0.29000  0.46100
E256  E   0.00300  0.94200  0.74700
E257  E   0.32400  0.98700  0.42600
E258  E   0.17600  0.51300  0.57400
E259  E   0.34500  0.18000  0.23800
E260  E   0.82600  0.66000  0.16000
E261  E   0.39600  0.13300  0.18900
E262  E   0.25300  0.55800  0.49700
E263  E   0.67600  0.01300  0.57400
E264  E   0.82400  0.48700  0.42600
E265  E   0.65500  0.82000  0.76200
E266  E   0.17400  0.34000  0.84000
E267  E   0.60400  0.86700  0.81100
E268  E   0.74700  0.44200  0.50300
E269  E   0.84500  0.57000  0.01200
E270  E   0.89600  0.61700  0.06100
E271  E   0.91800  0.54000  0.04000
E272  E   0.15500  0.43000  0.98800
E273  E   0.10400  0.38300  0.93900
E274  E   0.08200  0.46000  0.96000
E275  E   0.42600  0.26300  0.92600
E276  E   0.57400  0.73700  0.07400
E277  E   0.40500  0.07000  0.73800
E278  E   0.92400  0.59000  0.66000
E279  E   0.35400  0.11700  0.68900
E280  E   0.33200  0.04000  0.71000
E281  E   0.49700  0.69200  0.99700
E282  E   0.59500  0.93000  0.26200
E283  E   0.07600  0.41000  0.34000
E284  E   0.64600  0.88300  0.31100
E285  E   0.66800  0.96100  0.29000
E286  E   0.50300  0.30800  0.00300
E287  E   0.98700  0.42600  0.32400
E288  E   0.51300  0.57400  0.17600
E289  E   0.18000  0.23800  0.34500
E290  E   0.66000  0.16000  0.82600
E291  E   0.13300  0.18900  0.39600
E292  E   0.55800  0.49700  0.25300
E293  E   0.01300  0.57400  0.67600
E294  E   0.48700  0.42600  0.82400
E295  E   0.82000  0.76200  0.65500
E296  E   0.34000  0.84000  0.17400
E297  E   0.86700  0.81100  0.60400
E298  E   0.44200  0.50300  0.74700
E299  E   0.48700  0.32400  0.92600
E300  E   0.01300  0.17600  0.07400
E301  E   0.68000  0.51200  0.90500
E302  E   0.16000  0.59000  0.42400
E303  E   0.63300  0.56100  0.85400
E304  E   0.71000  0.54000  0.83200
E305  E   0.05800  0.25300  0.99700
E306  E   0.51300  0.67600  0.07400
E307  E   0.98700  0.82400  0.92600
E308  E   0.32000  0.48800  0.09500
E309  E   0.84000  0.41000  0.57600
E310  E   0.36700  0.43900  0.14600
E311  E   0.29000  0.46100  0.16800
E312  E   0.94200  0.74700  0.00300
E313  E   0.26300  0.92600  0.42600
E314  E   0.73700  0.07400  0.57400
E315  E   0.07000  0.73800  0.40500
E316  E   0.59000  0.66000  0.92400
E317  E   0.11700  0.68900  0.35400
E318  E   0.04000  0.71000  0.33200
E319  E   0.69200  0.99700  0.49700
E320  E   0.93000  0.26200  0.59500
E321  E   0.41000  0.34000  0.07600
E322  E   0.88300  0.31100  0.64600
E323  E   0.96100  0.29000  0.66800
E324  E   0.30800  0.00300  0.50300
E325  E   0.57000  0.01200  0.84500
E326  E   0.61700  0.06100  0.89600
E327  E   0.54000  0.04000  0.91800
E328  E   0.43000  0.98800  0.15500
E329  E   0.38300  0.93900  0.10400
E330  E   0.46000  0.96000  0.08200
E331  E   0.17600  0.67600  0.73700
E332  E   0.32400  0.82400  0.26300
E333  E   0.15500  0.48800  0.93000
E334  E   0.67400  0.41000  0.41000
E335  E   0.10400  0.43900  0.88300
E336  E   0.24700  0.74700  0.30800
E337  E   0.82400  0.32400  0.26300
E338  E   0.67600  0.17600  0.73700
E339  E   0.84500  0.51200  0.07000
E340  E   0.32600  0.59000  0.59000
E341  E   0.89600  0.56100  0.11700
E342  E   0.75300  0.25300  0.69200
E343  E   0.57400  0.57400  0.23700
E344  E   0.42600  0.42600  0.76300
E345  E   0.59500  0.76200  0.43000
E346  E   0.07600  0.84000  0.91000
E347  E   0.62500  0.62500  0.06800
E348  E   0.64600  0.81100  0.38300
E349  E   0.66800  0.79000  0.46100
E350  E   0.50300  0.50300  0.80800
E351  E   0.40500  0.23800  0.57000
E352  E   0.92400  0.16000  0.09000
E353  E   0.37500  0.37500  0.93200
E354  E   0.35400  0.18900  0.61700
E355  E   0.33200  0.21100  0.54000
E356  E   0.49700  0.49700  0.19200
E357  E   0.09500  0.98800  0.82000
E358  E   0.57600  0.91000  0.34000
E359  E   0.12500  0.12500  0.18200
E360  E   0.14600  0.93900  0.86700
E361  E   0.16800  0.96000  0.79000
E362  E   0.00300  0.24700  0.44200
E363  E   0.90500  0.01200  0.18000
E364  E   0.42400  0.09000  0.66000
E365  E   0.87500  0.87500  0.81800
E366  E   0.85400  0.06100  0.13300
E367  E   0.83200  0.04000  0.21000
E368  E   0.99700  0.75300  0.55800
E369  E   0.65500  0.26200  0.32000
E370  E   0.60400  0.31100  0.36700
E371  E   0.58200  0.29000  0.29000
E372  E   0.34500  0.73800  0.68000
E373  E   0.39600  0.68900  0.63300
E374  E   0.41800  0.71000  0.71000
E375  E   0.43000  0.65500  0.48800
E376  E   0.91000  0.17400  0.41000
E377  E   0.06800  0.62500  0.62500
E378  E   0.38300  0.60400  0.43900
E379  E   0.46000  0.58200  0.46100
E380  E   0.80800  0.74700  0.74700
E381  E   0.93200  0.37500  0.37500
E382  E   0.57000  0.34500  0.51200
E383  E   0.09000  0.82600  0.59000
E384  E   0.61700  0.39600  0.56100
E385  E   0.54000  0.41800  0.54000
E386  E   0.19200  0.25300  0.25300
E387  E   0.93000  0.09500  0.76200
E388  E   0.88300  0.14600  0.81100
E389  E   0.96100  0.16800  0.79000
E390  E   0.07000  0.90500  0.23800
E391  E   0.11700  0.85400  0.18900
E392  E   0.04000  0.83200  0.21000
E393  E   0.32000  0.59500  0.98800
E394  E   0.84000  0.07600  0.91000
E395  E   0.36700  0.64600  0.93900
E396  E   0.94200  0.50300  0.24700
E397  E   0.81800  0.87500  0.87500
E398  E   0.68000  0.40500  0.01200
E399  E   0.16000  0.92400  0.09000
E400  E   0.63300  0.35400  0.06100
E401  E   0.05800  0.49700  0.75300
E402  E   0.18200  0.12500  0.12500
E403  E   0.82000  0.15500  0.26200
E404  E   0.34000  0.67400  0.34000
E405  E   0.86700  0.10400  0.31100
E406  E   0.79000  0.08200  0.29000
E407  E   0.44200  0.24700  0.00300
E408  E   0.18000  0.84500  0.73800
E409  E   0.66000  0.32600  0.66000
E410  E   0.13300  0.89600  0.68900
E411  E   0.21000  0.91800  0.71000
E412  E   0.55800  0.75300  0.99700
E413  E   0.17600  0.73700  0.67600
E414  E   0.32400  0.26300  0.82400
E415  E   0.98800  0.93000  0.65500
E416  E   0.91000  0.41000  0.17400
E417  E   0.93900  0.88300  0.60400
E418  E   0.96000  0.96100  0.58200
E419  E   0.24700  0.30800  0.74700
E420  E   0.82400  0.26300  0.32400
E421  E   0.67600  0.73700  0.17600
E422  E   0.01200  0.07000  0.34500
E423  E   0.09000  0.59000  0.82600
E424  E   0.06100  0.11700  0.39600
E425  E   0.04000  0.03900  0.41800
E426  E   0.75300  0.69200  0.25300
E427  E   0.07400  0.23700  0.07400
E428  E   0.92600  0.76300  0.92600
E429  E   0.26200  0.43000  0.09500
E430  E   0.34000  0.91000  0.57600
E431  E   0.31100  0.38300  0.14600
E432  E   0.00300  0.80800  0.00300
E433  E   0.37500  0.93200  0.37500
E434  E   0.73800  0.57000  0.90500
E435  E   0.66000  0.09000  0.42400
E436  E   0.68900  0.61700  0.85400
E437  E   0.99700  0.19200  0.99700
E438  E   0.62500  0.06800  0.62500
E439  E   0.48800  0.82000  0.59500
E440  E   0.43900  0.86700  0.64600
E441  E   0.46100  0.79000  0.66800
E442  E   0.51200  0.18000  0.40500
E443  E   0.56100  0.13300  0.35400
E444  E   0.54000  0.21100  0.33200
E445  E   0.76200  0.32000  0.15500
E446  E   0.84000  0.84000  0.67400
E447  E   0.81100  0.36700  0.10400
E448  E   0.79000  0.29000  0.08200
E449  E   0.50300  0.94200  0.24700
E450  E   0.87500  0.81800  0.87500
E451  E   0.23800  0.68000  0.84500
E452  E   0.16000  0.16000  0.32600
E453  E   0.18900  0.63300  0.89600
E454  E   0.21000  0.71000  0.91800
E455  E   0.49700  0.05800  0.75300
E456  E   0.12500  0.18200  0.12500
E457  E   0.92600  0.92600  0.76300
E458  E   0.07400  0.07400  0.23700
E459  E   0.73800  0.90500  0.57000
E460  E   0.66000  0.42400  0.09000
E461  E   0.68900  0.85400  0.61700
E462  E   0.99700  0.99700  0.19200
E463  E   0.26200  0.09500  0.43000
E464  E   0.34000  0.57600  0.91000
E465  E   0.31100  0.14600  0.38300
E466  E   0.00300  0.00300  0.80800
E467  E   0.01200  0.34500  0.07000
E468  E   0.06100  0.39600  0.11700
E469  E   0.04000  0.41800  0.04000
E470  E   0.98800  0.65500  0.93000
E471  E   0.93900  0.60400  0.88300
E472  E   0.96000  0.58200  0.96100
E473  E   0.23800  0.84500  0.68000
E474  E   0.16000  0.32600  0.16000
E475  E   0.18900  0.89600  0.63300
E476  E   0.49700  0.75300  0.05800
E477  E   0.76200  0.15500  0.32000
E478  E   0.84000  0.67400  0.84000
E479  E   0.81100  0.10400  0.36700
E480  E   0.50300  0.24700  0.94200
E481  E   0.51200  0.40500  0.18000
E482  E   0.56100  0.35400  0.13300
E483  E   0.54000  0.33200  0.21000
E484  E   0.48800  0.59500  0.82000
E485  E   0.43900  0.64600  0.86700
E486  E   0.46100  0.66800  0.79000
E487  E   0.90500  0.18000  0.01200
E488  E   0.42400  0.66000  0.09000
E489  E   0.85400  0.13300  0.06100
E490  E   0.83200  0.21000  0.04000
E491  E   0.99700  0.55800  0.75300
E492  E   0.09500  0.82000  0.98800
E493  E   0.57600  0.34000  0.91000
E494  E   0.14600  0.86700  0.93900
E495  E   0.16800  0.79000  0.96000
E496  E   0.00300  0.44200  0.24700
E497  E   0.34500  0.68000  0.73800
E498  E   0.39600  0.63300  0.68900
E499  E   0.65500  0.32000  0.26200
E500  E   0.60400  0.36700  0.31100
E501  E   0.84500  0.07000  0.51200
E502  E   0.89600  0.11700  0.56100
E503  E   0.15500  0.93000  0.48800
E504  E   0.10400  0.88300  0.43900
E505  E   0.42600  0.76300  0.42600
E506  E   0.57400  0.23700  0.57400
E507  E   0.40500  0.57000  0.23800
E508  E   0.92400  0.09000  0.16000
E509  E   0.35400  0.61700  0.18900
E510  E   0.33200  0.54000  0.21000
E511  E   0.49700  0.19200  0.49700
E512  E   0.59500  0.43000  0.76200
E513  E   0.07600  0.91000  0.84000
E514  E   0.64600  0.38300  0.81100
E515  E   0.66800  0.46000  0.79000
E516  E   0.50300  0.80800  0.50300
E517  E   0.18000  0.73800  0.84500
E518  E   0.66000  0.66000  0.32600
E519  E   0.13300  0.68900  0.89600
E520  E   0.55800  0.99700  0.75300
E521  E   0.82000  0.26200  0.15500
E522  E   0.34000  0.34000  0.67400
E523  E   0.86700  0.31100  0.10400
E524  E   0.44200  0.00300  0.24700
E525  E   0.68000  0.01200  0.40500
E526  E   0.16000  0.09000  0.92400
E527  E   0.63300  0.06100  0.35400
E528  E   0.05800  0.75300  0.49700
E529  E   0.32000  0.98800  0.59500
E530  E   0.84000  0.91000  0.07600
E531  E   0.36700  0.93900  0.64600
E532  E   0.94200  0.24700  0.50300
E533  E   0.07000  0.23800  0.90500
E534  E   0.11700  0.18900  0.85400
E535  E   0.04000  0.21100  0.83200
E536  E   0.93000  0.76200  0.09500
E537  E   0.88300  0.81100  0.14600
E538  E   0.96100  0.79000  0.16800
E539  E   0.57000  0.51200  0.34500
E540  E   0.61700  0.56100  0.39600
E541  E   0.54000  0.54000  0.41800
E542  E   0.43000  0.48800  0.65500
E543  E   0.38300  0.43900  0.60400
E544  E   0.46000  0.46000  0.58200
E545  E   0.65500  0.98800  0.93000
E546  E   0.17400  0.91000  0.41000
E547  E   0.60400  0.93900  0.88300
E548  E   0.58200  0.96000  0.96100
E549  E   0.74700  0.24700  0.30800
E550  E   0.34500  0.01200  0.07000
E551  E   0.82600  0.09000  0.59000
E552  E   0.39600  0.06100  0.11700
E553  E   0.41800  0.04000  0.04000
E554  E   0.25300  0.75300  0.69200
E555  E   0.09500  0.26200  0.43000
E556  E   0.14600  0.31100  0.38300
E557  E   0.90500  0.73800  0.57000
E558  E   0.85400  0.68900  0.61700
E559  E   0.59500  0.48800  0.82000
E560  E   0.64600  0.43900  0.86700
E561  E   0.40500  0.51200  0.18000
E562  E   0.35400  0.56100  0.13300
E563  E   0.15500  0.76200  0.32000
E564  E   0.67400  0.84000  0.84000
E565  E   0.10400  0.81100  0.36700
E566  E   0.08200  0.79000  0.29000
E567  E   0.24700  0.50300  0.94200
E568  E   0.84500  0.23800  0.68000
E569  E   0.32600  0.16000  0.16000
E570  E   0.89600  0.18900  0.63300
E571  E   0.91800  0.21100  0.71000
E572  E   0.75300  0.49700  0.05800
E573  E   0.73700  0.17600  0.67600
E574  E   0.26300  0.32400  0.82400
E575  E   0.93000  0.15500  0.48800
E576  E   0.41000  0.67400  0.41000
E577  E   0.88300  0.10400  0.43900
E578  E   0.30800  0.24700  0.74700
E579  E   0.26300  0.82400  0.32400
E580  E   0.73700  0.67600  0.17600
E581  E   0.07000  0.84500  0.51200
E582  E   0.59000  0.32600  0.59000
E583  E   0.11700  0.89600  0.56100
E584  E   0.69200  0.75300  0.25300
E585  E   0.23700  0.57400  0.57400
E586  E   0.76300  0.42600  0.42600
E587  E   0.43000  0.59500  0.76200
E588  E   0.91000  0.07600  0.84000
E589  E   0.38300  0.64600  0.81100
E590  E   0.80800  0.50300  0.50300
E591  E   0.57000  0.40500  0.23800
E592  E   0.09000  0.92400  0.16000
E593  E   0.61700  0.35400  0.18900
E594  E   0.19200  0.49700  0.49700
E595  E   0.82000  0.09500  0.98800
E596  E   0.86700  0.14600  0.93900
E597  E   0.79000  0.16800  0.96000
E598  E   0.18000  0.90500  0.01200
E599  E   0.13300  0.85400  0.06100
E600  E   0.21000  0.83200  0.04000
E601  E   0.32000  0.65500  0.26200
E602  E   0.36700  0.60400  0.31100
E603  E   0.29000  0.58200  0.29000
E604  E   0.68000  0.34500  0.73800
E605  E   0.63300  0.39600  0.68900
E606  E   0.71000  0.41800  0.71000
E607  E   0.48800  0.43000  0.65500
E608  E   0.41000  0.91000  0.17400
E609  E   0.43900  0.38300  0.60400
E610  E   0.74700  0.80800  0.74700
E611  E   0.51200  0.57000  0.34500
E612  E   0.59000  0.09000  0.82600
E613  E   0.56100  0.61700  0.39600
E614  E   0.25300  0.19200  0.25300
E615  E   0.76200  0.93000  0.09500
E616  E   0.81100  0.88300  0.14600
E617  E   0.79000  0.96100  0.16800
E618  E   0.23800  0.07000  0.90500
E619  E   0.18900  0.11700  0.85400
E620  E   0.21100  0.04000  0.83200
E621  E   0.98800  0.32000  0.59500
E622  E   0.91000  0.84000  0.07600
E623  E   0.93900  0.36700  0.64600
E624  E   0.24700  0.94200  0.50300
E625  E   0.01200  0.68000  0.40500
E626  E   0.09000  0.16000  0.92400
E627  E   0.06100  0.63300  0.35400
E628  E   0.75300  0.05800  0.49700
E629  E   0.26200  0.82000  0.15500
E630  E   0.31100  0.86700  0.10400
E631  E   0.29000  0.79000  0.08200
E632  E   0.73800  0.18000  0.84500
E633  E   0.68900  0.13300  0.89600
E634  E   0.71000  0.21000  0.91800
E635  E   0.23800  0.40500  0.57000
E636  E   0.18900  0.35400  0.61700
E637  E   0.21100  0.33200  0.54000
E638  E   0.76200  0.59500  0.43000
E639  E   0.81100  0.64600  0.38300
E640  E   0.79000  0.66800  0.46100
E641  E   0.51200  0.84500  0.07000
E642  E   0.56100  0.89600  0.11700
E643  E   0.48800  0.15500  0.93000
E644  E   0.43900  0.10400  0.88300
E645  E   0.73800  0.34500  0.68000
E646  E   0.68900  0.39600  0.63300
E647  E   0.26200  0.65500  0.32000
E648  E   0.31100  0.60400  0.36700
E649  E   0.01200  0.90500  0.18000
E650  E   0.09000  0.42400  0.66000
E651  E   0.06100  0.85400  0.13300
E652  E   0.75300  0.99700  0.55800
E653  E   0.98800  0.09500  0.82000
E654  E   0.91000  0.57600  0.34000
E655  E   0.93900  0.14600  0.86700
E656  E   0.24700  0.00300  0.44200
E657  E   0.40500  0.68000  0.01200
E658  E   0.35400  0.63300  0.06100
E659  E   0.59500  0.32000  0.98800
E660  E   0.64600  0.36700  0.93900
E661  E   0.84500  0.18000  0.73800
E662  E   0.32600  0.66000  0.66000
E663  E   0.89600  0.13300  0.68900
E664  E   0.75300  0.55800  0.99700
E665  E   0.15500  0.82000  0.26200
E666  E   0.67400  0.34000  0.34000
E667  E   0.10400  0.86700  0.31100
E668  E   0.24700  0.44200  0.00300
E669  E   0.34500  0.57000  0.51200
E670  E   0.39600  0.61700  0.56100
E671  E   0.41800  0.54000  0.54000
E672  E   0.65500  0.43000  0.48800
E673  E   0.60400  0.38300  0.43900
E674  E   0.58200  0.46000  0.46100
E675  E   0.90500  0.07000  0.23800
E676  E   0.85400  0.11700  0.18900
E677  E   0.09500  0.93000  0.76200
E678  E   0.14600  0.88300  0.81100
E679  E   0.68000  0.23800  0.84500
E680  E   0.63300  0.18900  0.89600
E681  E   0.32000  0.76200  0.15500
E682  E   0.36700  0.81100  0.10400
E683  E   0.18000  0.51200  0.40500
E684  E   0.13300  0.56100  0.35400
E685  E   0.21100  0.54000  0.33200
E686  E   0.82000  0.48800  0.59500
E687  E   0.86700  0.43900  0.64600
E688  E   0.79000  0.46000  0.66800
E689  E   0.76300  0.92600  0.92600
E690  E   0.23700  0.07400  0.07400
E691  E   0.57000  0.73800  0.90500
E692  E   0.09000  0.66000  0.42400
E693  E   0.61700  0.68900  0.85400
E694  E   0.19200  0.99700  0.99700
E695  E   0.43000  0.26200  0.09500
E696  E   0.91000  0.34000  0.57600
E697  E   0.38300  0.31100  0.14600
E698  E   0.80800  0.00300  0.00300
E699  E   0.07000  0.01200  0.34500
E700  E   0.11700  0.06100  0.39600
E701  E   0.93000  0.98800  0.65500
E702  E   0.88300  0.93900  0.60400
E703  E   0.65500  0.48800  0.43000
E704  E   0.17400  0.41000  0.91000
E705  E   0.60400  0.43900  0.38300
E706  E   0.74700  0.74700  0.80800
E707  E   0.34500  0.51200  0.57000
E708  E   0.82600  0.59000  0.09000
E709  E   0.39600  0.56100  0.61700
E710  E   0.25300  0.25300  0.19200
E711  E   0.09500  0.76200  0.93000
E712  E   0.14600  0.81100  0.88300
E713  E   0.90500  0.23800  0.07000
E714  E   0.85400  0.18900  0.11700
E715  E   0.59500  0.98800  0.32000
E716  E   0.64600  0.93900  0.36700
E717  E   0.40500  0.01200  0.68000
E718  E   0.35400  0.06100  0.63300
E719  E   0.15500  0.26200  0.82000
E720  E   0.10400  0.31100  0.86700
E721  E   0.08200  0.29000  0.79000
E722  E   0.84500  0.73800  0.18000
E723  E   0.89600  0.68900  0.13300
E724  E   0.91800  0.71000  0.21000
E725  E   0.93000  0.65500  0.98800
E726  E   0.41000  0.17400  0.91000
E727  E   0.88300  0.60400  0.93900
E728  E   0.30800  0.74700  0.24700
E729  E   0.07000  0.34500  0.01200
E730  E   0.59000  0.82600  0.09000
E731  E   0.11700  0.39600  0.06100
E732  E   0.69200  0.25300  0.75300
E733  E   0.43000  0.09500  0.26200
E734  E   0.38300  0.14600  0.31100
E735  E   0.57000  0.90500  0.73800
E736  E   0.61700  0.85400  0.68900
E737  E   0.82000  0.59500  0.48800
E738  E   0.86700  0.64600  0.43900
E739  E   0.18000  0.40500  0.51200
E740  E   0.13300  0.35400  0.56100
E741  E   0.32000  0.15500  0.76200
E742  E   0.36700  0.10400  0.81100
E743  E   0.29000  0.08200  0.79000
E744  E   0.68000  0.84500  0.23800
E745  E   0.63300  0.89600  0.18900
E746  E   0.71000  0.91800  0.21000
E747  E   0.48800  0.93000  0.15500
E748  E   0.41000  0.41000  0.67400
E749  E   0.43900  0.88300  0.10400
E750  E   0.74700  0.30800  0.24700
E751  E   0.51200  0.07000  0.84500
E752  E   0.59000  0.59000  0.32600
E753  E   0.56100  0.11700  0.89600
E754  E   0.25300  0.69200  0.75300
E755  E   0.76200  0.43000  0.59500
E756  E   0.81100  0.38300  0.64600
E757  E   0.23800  0.57000  0.40500
E758  E   0.18900  0.61700  0.35400
E759  E   0.98800  0.82000  0.09500
E760  E   0.93900  0.86700  0.14600
E761  E   0.01200  0.18000  0.90500
E762  E   0.06100  0.13300  0.85400
E763  E   0.26200  0.32000  0.65500
E764  E   0.31100  0.36700  0.60400
E765  E   0.29000  0.29000  0.58200
E766  E   0.73800  0.68000  0.34500
E767  E   0.68900  0.63300  0.39600
E768  E   0.71000  0.71000  0.41800
E769  E   0.23800  0.90500  0.07000
E770  E   0.18900  0.85400  0.11700
E771  E   0.76200  0.09500  0.93000
E772  E   0.81100  0.14600  0.88300
E773  E   0.51200  0.34500  0.57000
E774  E   0.56100  0.39600  0.61700
E775  E   0.48800  0.65500  0.43000
E776  E   0.43900  0.60400  0.38300
E777  E   0.73800  0.84500  0.18000
E778  E   0.68900  0.89600  0.13300
E779  E   0.26200  0.15500  0.82000
E780  E   0.31100  0.10400  0.86700
E781  E   0.01200  0.40500  0.68000
E782  E   0.06100  0.35400  0.63300
E783  E   0.98800  0.59500  0.32000
E784  E   0.93900  0.64600  0.36700
E785  E   0.40500  0.18000  0.51200
E786  E   0.35400  0.13300  0.56100
E787  E   0.59500  0.82000  0.48800
E788  E   0.64600  0.86700  0.43900
E789  E   0.84500  0.68000  0.23800
E790  E   0.89600  0.63300  0.18900
E791  E   0.15500  0.32000  0.76200
E792  E   0.10400  0.36700  0.81100
E793  E   0.34500  0.07000  0.01200
E794  E   0.39600  0.11700  0.06100
E795  E   0.65500  0.93000  0.98800
E796  E   0.60400  0.88300  0.93900
E797  E   0.90500  0.57000  0.73800
E798  E   0.85400  0.61700  0.68900
E799  E   0.09500  0.43000  0.26200
E800  E   0.14600  0.38300  0.31100
E801  E   0.68000  0.73800  0.34500
E802  E   0.63300  0.68900  0.39600
E803  E   0.32000  0.26200  0.65500
E804  E   0.36700  0.31100  0.60400
E805  E   0.18000  0.01200  0.90500
E806  E   0.13300  0.06100  0.85400
E807  E   0.82000  0.98800  0.09500
E808  E   0.86700  0.93900  0.14600
E809  E   0.57000  0.23800  0.40500
E810  E   0.61700  0.18900  0.35400
E811  E   0.43000  0.76200  0.59500
E812  E   0.38300  0.81100  0.64600
E813  E   0.07000  0.51200  0.84500
E814  E   0.11700  0.56100  0.89600
E815  E   0.93000  0.48800  0.15500
E816  E   0.88300  0.43900  0.10400
E817  E   0.98000  0.23600  0.06000
E818  E   0.97600  0.92400  0.81500
E819  E   0.98300  0.70000  0.55000
E820  E   0.97600  0.33100  0.41900
E821  E   0.96400  0.32500  0.48900
E822  E   0.99000  0.71200  0.51700
E823  E   0.99000  0.51700  0.71200
E824  E   0.96400  0.48900  0.32500
E825  E   0.98000  0.06000  0.23600
E826  E   0.97600  0.41900  0.33100
E827  E   0.98300  0.55000  0.70000
E828  E   0.97600  0.81500  0.92400
E829  E   0.96400  0.82500  0.98900
E830  E   0.99000  0.21200  0.01700
E831  E   0.99000  0.01700  0.21200
E832  E   0.96400  0.98900  0.82500
E833  E   0.98000  0.01400  0.19000
E834  E   0.96400  0.42500  0.26100
E835  E   0.99000  0.53800  0.73300
E836  E   0.96400  0.76100  0.92500
E837  E   0.96400  0.92500  0.76100
E838  E   0.99000  0.73300  0.53800
E839  E   0.96400  0.26100  0.42500
E840  E   0.98000  0.19000  0.01400
E841  E   0.02000  0.76400  0.94000
E842  E   0.02400  0.07600  0.18500
E843  E   0.02500  0.66900  0.58100
E844  E   0.01700  0.30000  0.45000
E845  E   0.01000  0.28800  0.48300
E846  E   0.03600  0.67500  0.51100
E847  E   0.03600  0.51100  0.67500
E848  E   0.01000  0.48300  0.28800
E849  E   0.02000  0.94000  0.76400
E850  E   0.01700  0.45000  0.30000
E851  E   0.02500  0.58100  0.66900
E852  E   0.02400  0.18500  0.07600
E853  E   0.01000  0.78800  0.98300
E854  E   0.03600  0.17500  0.01100
E855  E   0.03600  0.01100  0.17500
E856  E   0.01000  0.98300  0.78800
E857  E   0.02000  0.98600  0.81000
E858  E   0.01000  0.46200  0.26700
E859  E   0.03600  0.57500  0.73900
E860  E   0.03600  0.23900  0.07500
E861  E   0.03600  0.07500  0.23900
E862  E   0.03600  0.73900  0.57500
E863  E   0.01000  0.26700  0.46200
E864  E   0.02000  0.81000  0.98600
E865  E   0.48900  0.96400  0.32500
E866  E   0.51700  0.99000  0.71200
E867  E   0.06000  0.98000  0.23600
E868  E   0.81500  0.97600  0.92400
E869  E   0.55000  0.98300  0.70000
E870  E   0.41900  0.97600  0.33100
E871  E   0.23600  0.98000  0.06000
E872  E   0.92400  0.97600  0.81500
E873  E   0.33100  0.97600  0.41900
E874  E   0.70100  0.98300  0.55000
E875  E   0.71200  0.99000  0.51700
E876  E   0.32500  0.96400  0.48900
E877  E   0.76100  0.96400  0.92500
E878  E   0.01400  0.98000  0.19000
E879  E   0.01700  0.99000  0.21200
E880  E   0.53800  0.99000  0.73300
E881  E   0.42500  0.96400  0.26100
E882  E   0.98900  0.96400  0.82500
E883  E   0.21200  0.99000  0.01700
E884  E   0.82500  0.96400  0.98900
E885  E   0.26100  0.96400  0.42500
E886  E   0.73300  0.99000  0.53800
E887  E   0.19000  0.98000  0.01400
E888  E   0.92500  0.96400  0.76100
E889  E   0.48300  0.01000  0.28800
E890  E   0.51100  0.03600  0.67500
E891  E   0.94000  0.02000  0.76400
E892  E   0.18500  0.02400  0.07600
E893  E   0.58100  0.02500  0.66900
E894  E   0.45000  0.01700  0.30000
E895  E   0.76400  0.02000  0.94000
E896  E   0.07600  0.02400  0.18500
E897  E   0.30000  0.01700  0.45000
E898  E   0.66900  0.02500  0.58100
E899  E   0.67500  0.03600  0.51100
E900  E   0.28800  0.01000  0.48300
E901  E   0.23900  0.03600  0.07500
E902  E   0.98600  0.02000  0.81000
E903  E   0.98300  0.01000  0.78800
E904  E   0.57500  0.03600  0.73900
E905  E   0.46200  0.01000  0.26700
E906  E   0.01100  0.03600  0.17500
E907  E   0.17500  0.03600  0.01100
E908  E   0.78800  0.01000  0.98300
E909  E   0.26700  0.01000  0.46200
E910  E   0.73900  0.03600  0.57500
E911  E   0.81000  0.02000  0.98600
E912  E   0.07500  0.03600  0.23900
E913  E   0.95000  0.92500  0.16100
E914  E   0.97000  0.03300  0.80900
E915  E   0.96700  0.03000  0.19100
E916  E   0.03000  0.96700  0.19100
E917  E   0.03300  0.97000  0.80900
E918  E   0.05000  0.07500  0.83900
E919  E   0.92400  0.81500  0.97600
E920  E   0.70000  0.55000  0.98300
E921  E   0.33100  0.41900  0.97600
E922  E   0.32500  0.48900  0.96400
E923  E   0.71200  0.51700  0.99000
E924  E   0.23600  0.06000  0.98000
E925  E   0.41900  0.33100  0.97600
E926  E   0.55000  0.70000  0.98300
E927  E   0.81500  0.92400  0.97600
E928  E   0.51700  0.71200  0.99000
E929  E   0.48900  0.32500  0.96400
E930  E   0.06000  0.23600  0.98000
E931  E   0.42500  0.26100  0.96400
E932  E   0.53800  0.73300  0.99000
E933  E   0.01400  0.19000  0.98000
E934  E   0.01700  0.21200  0.99000
E935  E   0.76100  0.92500  0.96400
E936  E   0.92500  0.76100  0.96400
E937  E   0.73300  0.53800  0.99000
E938  E   0.26100  0.42500  0.96400
E939  E   0.19000  0.01400  0.98000
E940  E   0.21200  0.01700  0.99000
E941  E   0.82500  0.98900  0.96400
E942  E   0.98900  0.82500  0.96400
E943  E   0.95000  0.16100  0.92500
E944  E   0.03000  0.19100  0.96700
E945  E   0.03300  0.80900  0.97000
E946  E   0.16100  0.95000  0.92500
E947  E   0.19100  0.03000  0.96700
E948  E   0.80900  0.03300  0.97000
E949  E   0.07600  0.18500  0.02400
E950  E   0.66900  0.58100  0.02500
E951  E   0.30000  0.45000  0.01700
E952  E   0.28800  0.48300  0.01000
E953  E   0.67500  0.51100  0.03600
E954  E   0.76400  0.94000  0.02000
E955  E   0.45000  0.30000  0.01700
E956  E   0.58100  0.66900  0.02500
E957  E   0.18500  0.07600  0.02400
E958  E   0.51100  0.67500  0.03600
E959  E   0.48300  0.28800  0.01000
E960  E   0.94000  0.76500  0.02000
E961  E   0.46200  0.26700  0.01000
E962  E   0.57500  0.73900  0.03600
E963  E   0.98600  0.81000  0.02000
E964  E   0.98300  0.78800  0.01000
E965  E   0.23900  0.07500  0.03600
E966  E   0.07500  0.23900  0.03600
E967  E   0.73900  0.57500  0.03600
E968  E   0.26700  0.46200  0.01000
E969  E   0.81000  0.98600  0.02000
E970  E   0.78800  0.98300  0.01000
E971  E   0.17500  0.01100  0.03600
E972  E   0.01100  0.17500  0.03600
E973  E   0.97000  0.80900  0.03300
E974  E   0.96700  0.19100  0.03000
E975  E   0.05000  0.83900  0.07500
E976  E   0.80900  0.97000  0.03300
E977  E   0.19100  0.96700  0.03000
E978  E   0.83900  0.05000  0.07500
loop_
