data_myd_I213  hall_number: 493, V_con: 6, EC_con: 4
_audit_creation_date              2025-03-06
_audit_creation_method            'MOFbuilder_1.0'
_symmetry_space_group_name_H-M    'P1'
_symmetry_Int_Tables_number       1
_symmetry_cell_setting            triclinic
loop_
_symmetry_equiv_pos_as_xyz
  x,y,z
_cell_length_a                    29.9602
_cell_length_b                    29.9602
_cell_length_c                    29.9602
_cell_angle_alpha                 90.0
_cell_angle_beta                  90.0
_cell_angle_gamma                 90.0
loop_
_atom_site_label
_atom_site_type_symbol
_atom_site_fract_x
_atom_site_fract_y
_atom_site_fract_z
V1    V   0.05000  0.05000  0.05000
V2    V   0.05000  0.95000  0.45000
V3    V   0.45000  0.05000  0.95000
V4    V   0.45000  0.95000  0.55000
V5    V   0.55000  0.45000  0.95000
V6    V   0.55000  0.55000  0.55000
V7    V   0.95000  0.45000  0.05000
V8    V   0.95000  0.55000  0.45000
EC1    EC   0.00000  0.25000  0.31250
EC2    EC   0.00000  0.75000  0.18750
EC3    EC   0.18750  0.00000  0.75000
EC4    EC   0.25000  0.31250  0.00000
EC5    EC   0.25000  0.68750  0.50000
EC6    EC   0.31250  0.00000  0.25000
EC7    EC   0.50000  0.25000  0.68750
EC8    EC   0.50000  0.75000  0.81250
EC9    EC   0.68750  0.50000  0.25000
EC10   EC   0.75000  0.18750  0.00000
EC11   EC   0.75000  0.81250  0.50000
EC12   EC   0.81250  0.50000  0.75000
E1    E   0.02500  0.10000  0.38125
E2    E   0.02500  0.15000  0.18125
E3    E   0.02500  0.85000  0.31875
E4    E   0.02500  0.90000  0.11875
E5    E   0.10000  0.38125  0.02500
E6    E   0.10000  0.61875  0.47500
E7    E   0.11875  0.02500  0.90000
E8    E   0.11875  0.97500  0.60000
E9    E   0.15000  0.18125  0.02500
E10   E   0.15000  0.81875  0.47500
E11   E   0.18125  0.02500  0.15000
E12   E   0.18125  0.97500  0.35000
E13   E   0.31875  0.02500  0.85000
E14   E   0.31875  0.97500  0.65000
E15   E   0.35000  0.18125  0.97500
E16   E   0.35000  0.81875  0.52500
E17   E   0.38125  0.02500  0.10000
E18   E   0.38125  0.97500  0.40000
E19   E   0.40000  0.38125  0.97500
E20   E   0.40000  0.61875  0.52500
E21   E   0.47500  0.10000  0.61875
E22   E   0.47500  0.15000  0.81875
E23   E   0.47500  0.85000  0.68125
E24   E   0.47500  0.90000  0.88125
E25   E   0.52500  0.35000  0.81875
E26   E   0.52500  0.40000  0.61875
E27   E   0.52500  0.60000  0.88125
E28   E   0.52500  0.65000  0.68125
E29   E   0.60000  0.11875  0.97500
E30   E   0.60000  0.88125  0.52500
E31   E   0.61875  0.47500  0.10000
E32   E   0.61875  0.52500  0.40000
E33   E   0.65000  0.31875  0.97500
E34   E   0.65000  0.68125  0.52500
E35   E   0.68125  0.47500  0.85000
E36   E   0.68125  0.52500  0.65000
E37   E   0.81875  0.47500  0.15000
E38   E   0.81875  0.52500  0.35000
E39   E   0.85000  0.31875  0.02500
E40   E   0.85000  0.68125  0.47500
E41   E   0.88125  0.47500  0.90000
E42   E   0.88125  0.52500  0.60000
E43   E   0.90000  0.11875  0.02500
E44   E   0.90000  0.88125  0.47500
E45   E   0.97500  0.35000  0.18125
E46   E   0.97500  0.40000  0.38125
E47   E   0.97500  0.60000  0.11875
E48   E   0.97500  0.65000  0.31875
loop_
