data_nku_Ia-3d  hall_number: 530, V_con: 6, EC_con: 6
_audit_creation_date              2025-03-06
_audit_creation_method            'MOFbuilder_1.0'
_symmetry_space_group_name_H-M    'P1'
_symmetry_Int_Tables_number       1
_symmetry_cell_setting            triclinic
loop_
_symmetry_equiv_pos_as_xyz
  x,y,z
_cell_length_a                    42.7599
_cell_length_b                    42.7599
_cell_length_c                    42.7599
_cell_angle_alpha                 90.0
_cell_angle_beta                  90.0
_cell_angle_gamma                 90.0
loop_
_atom_site_label
_atom_site_type_symbol
_atom_site_fract_x
_atom_site_fract_y
_atom_site_fract_z
V1    V   0.06248  0.12500  0.81248
V2    V   0.06248  0.37500  0.31248
V3    V   0.06248  0.62500  0.18752
V4    V   0.06248  0.87500  0.68752
V5    V   0.06248  0.12500  0.81248
V6    V   0.06248  0.37500  0.31248
V7    V   0.06248  0.62500  0.18752
V8    V   0.06248  0.87500  0.68752
V9    V   0.12500  0.18752  0.43752
V10   V   0.12500  0.18752  0.43752
V11   V   0.12500  0.31248  0.93752
V12   V   0.12500  0.68752  0.56248
V13   V   0.12500  0.81248  0.06248
V14   V   0.12500  0.81248  0.06248
V15   V   0.18752  0.06248  0.62500
V16   V   0.18752  0.43752  0.12500
V17   V   0.18752  0.56248  0.37500
V18   V   0.18752  0.93752  0.87500
V19   V   0.18752  0.06248  0.62500
V20   V   0.18752  0.43752  0.12500
V21   V   0.18752  0.56248  0.37500
V22   V   0.18752  0.93752  0.87500
V23   V   0.31248  0.06248  0.37500
V24   V   0.31248  0.06248  0.37500
V25   V   0.31248  0.43752  0.87500
V26   V   0.31248  0.56248  0.62500
V27   V   0.31248  0.93752  0.12500
V28   V   0.37500  0.18752  0.56248
V29   V   0.37500  0.18752  0.56248
V30   V   0.37500  0.31248  0.06248
V31   V   0.37500  0.31248  0.06248
V32   V   0.37500  0.68752  0.43752
V33   V   0.37500  0.81248  0.93752
V34   V   0.43752  0.12500  0.18752
V35   V   0.43752  0.12500  0.18752
V36   V   0.43752  0.37500  0.68752
V37   V   0.43752  0.62500  0.81248
V38   V   0.43752  0.87500  0.31248
V39   V   0.56248  0.12500  0.68752
V40   V   0.56248  0.37500  0.18752
V41   V   0.56248  0.37500  0.18752
V42   V   0.56248  0.62500  0.31248
V43   V   0.56248  0.87500  0.81248
V44   V   0.62500  0.18752  0.06248
V45   V   0.62500  0.18752  0.06248
V46   V   0.62500  0.31248  0.56248
V47   V   0.62500  0.68752  0.93752
V48   V   0.62500  0.81248  0.43752
V49   V   0.68752  0.06248  0.87500
V50   V   0.68752  0.06248  0.87500
V51   V   0.68752  0.43752  0.37500
V52   V   0.68752  0.56248  0.12500
V53   V   0.68752  0.93752  0.62500
V54   V   0.81248  0.06248  0.12500
V55   V   0.81248  0.06248  0.12500
V56   V   0.81248  0.43752  0.62500
V57   V   0.81248  0.56248  0.87500
V58   V   0.81248  0.93752  0.37500
V59   V   0.87500  0.18752  0.93752
V60   V   0.87500  0.18752  0.93752
V61   V   0.87500  0.31248  0.43752
V62   V   0.87500  0.68752  0.06248
V63   V   0.87500  0.68752  0.06248
V64   V   0.87500  0.81248  0.56248
V65   V   0.93752  0.12500  0.31248
V66   V   0.93752  0.37500  0.81248
V67   V   0.93752  0.62500  0.68752
V68   V   0.93752  0.87500  0.18752
V69   V   0.93752  0.87500  0.18752
EC1    EC   0.00000  0.00000  0.00000
EC2    EC   0.00000  0.00000  0.50000
EC3    EC   0.00000  0.50000  0.00000
EC4    EC   0.00000  0.50000  0.50000
EC5    EC   0.25000  0.25000  0.25000
EC6    EC   0.25000  0.25000  0.75000
EC7    EC   0.25000  0.75000  0.25000
EC8    EC   0.25000  0.75000  0.75000
EC9    EC   0.50000  0.00000  0.00000
EC10   EC   0.50000  0.00000  0.50000
EC11   EC   0.50000  0.50000  0.00000
EC12   EC   0.50000  0.50000  0.50000
EC13   EC   0.75000  0.25000  0.25000
EC14   EC   0.75000  0.25000  0.75000
EC15   EC   0.75000  0.75000  0.25000
EC16   EC   0.75000  0.75000  0.75000
E1    E   0.03124  0.06250  0.90624
E2    E   0.03124  0.43750  0.40624
E3    E   0.03124  0.56250  0.09376
E4    E   0.03124  0.93750  0.59376
E5    E   0.03126  0.15626  0.37500
E6    E   0.03126  0.34374  0.87500
E7    E   0.03126  0.65626  0.62500
E8    E   0.03126  0.84374  0.12500
E9    E   0.06250  0.09376  0.46876
E10   E   0.06250  0.40624  0.96876
E11   E   0.06250  0.59376  0.53124
E12   E   0.06250  0.90624  0.03124
E13   E   0.09374  0.21874  0.87500
E14   E   0.09374  0.28126  0.37500
E15   E   0.09374  0.71874  0.12500
E16   E   0.09374  0.78126  0.62500
E17   E   0.09376  0.03124  0.56250
E18   E   0.09376  0.46876  0.06250
E19   E   0.09376  0.53124  0.43750
E20   E   0.09376  0.96876  0.93750
E21   E   0.12500  0.03126  0.84374
E22   E   0.12500  0.09374  0.71874
E23   E   0.12500  0.40626  0.21874
E24   E   0.12500  0.46874  0.34374
E25   E   0.12500  0.53126  0.15626
E26   E   0.12500  0.59374  0.28126
E27   E   0.12500  0.90626  0.78126
E28   E   0.12500  0.96874  0.65626
E29   E   0.15624  0.18750  0.78124
E30   E   0.15624  0.31250  0.28124
E31   E   0.15624  0.68750  0.21876
E32   E   0.15624  0.81250  0.71876
E33   E   0.15626  0.12500  0.53126
E34   E   0.15626  0.37500  0.03126
E35   E   0.15626  0.62500  0.46874
E36   E   0.15626  0.87500  0.96874
E37   E   0.18750  0.21876  0.34376
E38   E   0.18750  0.28124  0.84376
E39   E   0.18750  0.71876  0.65624
E40   E   0.18750  0.78124  0.15624
E41   E   0.21874  0.12500  0.40626
E42   E   0.21874  0.37500  0.90626
E43   E   0.21874  0.62500  0.59374
E44   E   0.21874  0.87500  0.09374
E45   E   0.21876  0.15624  0.68750
E46   E   0.21876  0.34376  0.18750
E47   E   0.21876  0.65624  0.31250
E48   E   0.21876  0.84376  0.81250
E49   E   0.28124  0.15624  0.31250
E50   E   0.28124  0.34376  0.81250
E51   E   0.28124  0.65624  0.68750
E52   E   0.28124  0.84376  0.18750
E53   E   0.28126  0.12500  0.59374
E54   E   0.28126  0.37500  0.09374
E55   E   0.28126  0.62500  0.40626
E56   E   0.28126  0.87500  0.90626
E57   E   0.31250  0.21876  0.65624
E58   E   0.31250  0.28124  0.15624
E59   E   0.31250  0.71876  0.34376
E60   E   0.31250  0.78124  0.84376
E61   E   0.34374  0.12500  0.46874
E62   E   0.34374  0.37500  0.96874
E63   E   0.34374  0.62500  0.53126
E64   E   0.34374  0.87500  0.03126
E65   E   0.34376  0.18750  0.21876
E66   E   0.34376  0.31250  0.71876
E67   E   0.34376  0.68750  0.78124
E68   E   0.34376  0.81250  0.28124
E69   E   0.37500  0.03126  0.15626
E70   E   0.37500  0.09374  0.28126
E71   E   0.37500  0.40626  0.78126
E72   E   0.37500  0.46874  0.65626
E73   E   0.37500  0.53126  0.84374
E74   E   0.37500  0.59374  0.71874
E75   E   0.37500  0.90626  0.21874
E76   E   0.37500  0.96874  0.34374
E77   E   0.40624  0.03124  0.43750
E78   E   0.40624  0.46876  0.93750
E79   E   0.40624  0.53124  0.56250
E80   E   0.40624  0.96876  0.06250
E81   E   0.40626  0.21874  0.12500
E82   E   0.40626  0.28126  0.62500
E83   E   0.40626  0.71874  0.87500
E84   E   0.40626  0.78126  0.37500
E85   E   0.43750  0.09376  0.53124
E86   E   0.43750  0.40624  0.03124
E87   E   0.43750  0.59376  0.46876
E88   E   0.43750  0.90624  0.96876
E89   E   0.46874  0.15626  0.62500
E90   E   0.46874  0.34374  0.12500
E91   E   0.46874  0.65626  0.37500
E92   E   0.46874  0.84374  0.87500
E93   E   0.46876  0.06250  0.09376
E94   E   0.46876  0.43750  0.59376
E95   E   0.46876  0.56250  0.90624
E96   E   0.46876  0.93750  0.40624
E97   E   0.53124  0.06250  0.59376
E98   E   0.53124  0.43750  0.09376
E99   E   0.53124  0.56250  0.40624
E100  E   0.53124  0.93750  0.90624
E101  E   0.53126  0.15626  0.12500
E102  E   0.53126  0.34374  0.62500
E103  E   0.53126  0.65626  0.87500
E104  E   0.53126  0.84374  0.37500
E105  E   0.56250  0.09376  0.03124
E106  E   0.56250  0.40624  0.53124
E107  E   0.56250  0.59376  0.96876
E108  E   0.56250  0.90624  0.46876
E109  E   0.59374  0.21874  0.62500
E110  E   0.59374  0.28126  0.12500
E111  E   0.59374  0.71874  0.37500
E112  E   0.59374  0.78126  0.87500
E113  E   0.59376  0.03124  0.93750
E114  E   0.59376  0.46876  0.43750
E115  E   0.59376  0.53124  0.06250
E116  E   0.59376  0.96876  0.56250
E117  E   0.62500  0.03126  0.65626
E118  E   0.62500  0.09374  0.78126
E119  E   0.62500  0.40626  0.28126
E120  E   0.62500  0.46874  0.15626
E121  E   0.62500  0.53126  0.34374
E122  E   0.62500  0.59374  0.21874
E123  E   0.62500  0.90626  0.71874
E124  E   0.62500  0.96874  0.84374
E125  E   0.65624  0.18750  0.71876
E126  E   0.65624  0.31250  0.21876
E127  E   0.65624  0.68750  0.28124
E128  E   0.65624  0.81250  0.78124
E129  E   0.65626  0.12500  0.96874
E130  E   0.65626  0.37500  0.46874
E131  E   0.65626  0.62500  0.03126
E132  E   0.65626  0.87500  0.53126
E133  E   0.68750  0.21876  0.15624
E134  E   0.68750  0.28124  0.65624
E135  E   0.68750  0.71876  0.84376
E136  E   0.68750  0.78124  0.34376
E137  E   0.71874  0.12500  0.09374
E138  E   0.71874  0.37500  0.59374
E139  E   0.71874  0.62500  0.90626
E140  E   0.71874  0.87500  0.40626
E141  E   0.71876  0.15624  0.81250
E142  E   0.71876  0.34376  0.31250
E143  E   0.71876  0.65624  0.18750
E144  E   0.71876  0.84376  0.68750
E145  E   0.78124  0.15624  0.18750
E146  E   0.78124  0.34376  0.68750
E147  E   0.78124  0.65624  0.81250
E148  E   0.78124  0.84376  0.31250
E149  E   0.78126  0.12500  0.90626
E150  E   0.78126  0.37500  0.40626
E151  E   0.78126  0.62500  0.09374
E152  E   0.78126  0.87500  0.59374
E153  E   0.81250  0.21876  0.84376
E154  E   0.81250  0.28124  0.34376
E155  E   0.81250  0.71876  0.15624
E156  E   0.81250  0.78124  0.65624
E157  E   0.84374  0.12500  0.03126
E158  E   0.84374  0.37500  0.53126
E159  E   0.84374  0.62500  0.96874
E160  E   0.84374  0.87500  0.46874
E161  E   0.84376  0.18750  0.28124
E162  E   0.84376  0.31250  0.78124
E163  E   0.84376  0.68750  0.71876
E164  E   0.84376  0.81250  0.21876
E165  E   0.87500  0.03126  0.34374
E166  E   0.87500  0.09374  0.21874
E167  E   0.87500  0.40626  0.71874
E168  E   0.87500  0.46874  0.84374
E169  E   0.87500  0.53126  0.65626
E170  E   0.87500  0.59374  0.78126
E171  E   0.87500  0.90626  0.28126
E172  E   0.87500  0.96874  0.15626
E173  E   0.90624  0.03124  0.06250
E174  E   0.90624  0.46876  0.56250
E175  E   0.90624  0.53124  0.93750
E176  E   0.90624  0.96876  0.43750
E177  E   0.90626  0.21874  0.37500
E178  E   0.90626  0.28126  0.87500
E179  E   0.90626  0.71874  0.62500
E180  E   0.90626  0.78126  0.12500
E181  E   0.93750  0.09376  0.96876
E182  E   0.93750  0.40624  0.46876
E183  E   0.93750  0.59376  0.03124
E184  E   0.93750  0.90624  0.53124
E185  E   0.96874  0.15626  0.87500
E186  E   0.96874  0.34374  0.37500
E187  E   0.96874  0.65626  0.12500
E188  E   0.96874  0.84374  0.62500
E189  E   0.96876  0.06250  0.40624
E190  E   0.96876  0.43750  0.90624
E191  E   0.96876  0.56250  0.59376
E192  E   0.96876  0.93750  0.09376
loop_
