data_noi_Cmcm  hall_number: 298, V_con: 3, EC_con: 3
_audit_creation_date              2025-03-06
_audit_creation_method            'MOFbuilder_1.0'
_symmetry_space_group_name_H-M    'P1'
_symmetry_Int_Tables_number       1
_symmetry_cell_setting            triclinic
loop_
_symmetry_equiv_pos_as_xyz
  x,y,z
_cell_length_a                    42.6586
_cell_length_b                    34.2668
_cell_length_c                    51.1725
_cell_angle_alpha                 90.0
_cell_angle_beta                  90.0
_cell_angle_gamma                 90.0
loop_
_atom_site_label
_atom_site_type_symbol
_atom_site_fract_x
_atom_site_fract_y
_atom_site_fract_z
V1    V   0.00000  0.35929  0.65229
V2    V   0.00000  0.35929  0.84771
V3    V   0.00000  0.64071  0.15229
V4    V   0.00000  0.64071  0.34771
V5    V   0.50000  0.14071  0.15229
V6    V   0.50000  0.14071  0.34771
V7    V   0.50000  0.85929  0.65229
V8    V   0.50000  0.85929  0.84771
EC1    EC   0.18030  0.35994  0.52740
EC2    EC   0.18030  0.35994  0.97260
EC3    EC   0.18030  0.64006  0.02740
EC4    EC   0.18030  0.64006  0.47260
EC5    EC   0.31970  0.14006  0.02740
EC6    EC   0.31970  0.14006  0.47260
EC7    EC   0.31970  0.85994  0.52740
EC8    EC   0.31970  0.85994  0.97260
EC9    EC   0.68030  0.14006  0.02740
EC10   EC   0.68030  0.14006  0.47260
EC11   EC   0.68030  0.85994  0.52740
EC12   EC   0.68030  0.85994  0.97260
EC13   EC   0.81970  0.35994  0.52740
EC14   EC   0.81970  0.35994  0.97260
EC15   EC   0.81970  0.64006  0.02740
EC16   EC   0.81970  0.64006  0.47260
E1    E   0.00000  0.35929  0.75000
E2    E   0.00000  0.64071  0.25000
E3    E   0.09015  0.35962  0.58985
E4    E   0.09015  0.35962  0.91015
E5    E   0.09015  0.64038  0.08985
E6    E   0.09015  0.64038  0.41015
E7    E   0.18030  0.50000  0.00000
E8    E   0.18030  0.50000  0.50000
E9    E   0.25000  0.25000  0.00000
E10   E   0.25000  0.25000  0.50000
E11   E   0.25000  0.75000  0.00000
E12   E   0.25000  0.75000  0.50000
E13   E   0.31970  0.00000  0.00000
E14   E   0.31970  0.00000  0.50000
E15   E   0.40985  0.14038  0.08985
E16   E   0.40985  0.14038  0.41015
E17   E   0.40985  0.85962  0.58985
E18   E   0.40985  0.85962  0.91015
E19   E   0.50000  0.14071  0.25000
E20   E   0.50000  0.85929  0.75000
E21   E   0.59015  0.14038  0.08985
E22   E   0.59015  0.14038  0.41015
E23   E   0.59015  0.85962  0.58985
E24   E   0.59015  0.85962  0.91015
E25   E   0.68030  0.00000  0.00000
E26   E   0.68030  0.00000  0.50000
E27   E   0.75000  0.25000  0.00000
E28   E   0.75000  0.25000  0.50000
E29   E   0.75000  0.75000  0.00000
E30   E   0.75000  0.75000  0.50000
E31   E   0.81970  0.50000  0.00000
E32   E   0.81970  0.50000  0.50000
E33   E   0.90985  0.35962  0.58985
E34   E   0.90985  0.35962  0.91015
E35   E   0.90985  0.64038  0.08985
E36   E   0.90985  0.64038  0.41015
loop_
