data_nol_Pnma  hall_number: 292, V_con: 4, EC_con: 4
_audit_creation_date              2025-03-06
_audit_creation_method            'MOFbuilder_1.0'
_symmetry_space_group_name_H-M    'P1'
_symmetry_Int_Tables_number       1
_symmetry_cell_setting            triclinic
loop_
_symmetry_equiv_pos_as_xyz
  x,y,z
_cell_length_a                    31.1858
_cell_length_b                    39.1808
_cell_length_c                    29.2149
_cell_angle_alpha                 90.0
_cell_angle_beta                  90.0
_cell_angle_gamma                 90.0
loop_
_atom_site_label
_atom_site_type_symbol
_atom_site_fract_x
_atom_site_fract_y
_atom_site_fract_z
V1    V   0.12255  0.03403  0.10046
V2    V   0.12255  0.46597  0.10046
V3    V   0.37745  0.53403  0.60046
V4    V   0.37745  0.96597  0.60046
V5    V   0.62255  0.03403  0.39954
V6    V   0.62255  0.46597  0.39954
V7    V   0.87745  0.53403  0.89954
V8    V   0.87745  0.96597  0.89954
EC1    EC   0.17219  0.62239  0.83523
EC2    EC   0.17219  0.87761  0.83523
EC3    EC   0.32781  0.12239  0.33523
EC4    EC   0.32781  0.37761  0.33523
EC5    EC   0.67219  0.62239  0.66477
EC6    EC   0.67219  0.87761  0.66477
EC7    EC   0.82781  0.12239  0.16477
EC8    EC   0.82781  0.37761  0.16477
E1    E   0.00000  0.00000  0.00000
E2    E   0.00000  0.50000  0.00000
E3    E   0.02482  0.57821  0.86738
E4    E   0.02482  0.92179  0.86738
E5    E   0.14737  0.54418  0.96785
E6    E   0.14737  0.95582  0.96785
E7    E   0.17219  0.75000  0.83523
E8    E   0.22518  0.07821  0.21785
E9    E   0.22518  0.42179  0.21785
E10   E   0.27482  0.57821  0.71785
E11   E   0.27482  0.92179  0.71785
E12   E   0.32781  0.25000  0.33523
E13   E   0.35263  0.04418  0.46785
E14   E   0.35263  0.45582  0.46785
E15   E   0.47518  0.07821  0.36738
E16   E   0.47518  0.42179  0.36738
E17   E   0.50000  0.00000  0.50000
E18   E   0.50000  0.50000  0.50000
E19   E   0.52482  0.57821  0.63262
E20   E   0.52482  0.92179  0.63262
E21   E   0.64737  0.54418  0.53215
E22   E   0.64737  0.95582  0.53215
E23   E   0.67219  0.75000  0.66477
E24   E   0.72518  0.07821  0.28215
E25   E   0.72518  0.42179  0.28215
E26   E   0.77482  0.57821  0.78215
E27   E   0.77482  0.92179  0.78215
E28   E   0.82781  0.25000  0.16477
E29   E   0.85263  0.04418  0.03215
E30   E   0.85263  0.45582  0.03215
E31   E   0.97518  0.07821  0.13262
E32   E   0.97518  0.42179  0.13262
loop_
