data_nts-a_Fm-3m  hall_number: 523, V_con: 3, EC_con: 3
_audit_creation_date              2025-03-06
_audit_creation_method            'MOFbuilder_1.0'
_symmetry_space_group_name_H-M    'P1'
_symmetry_Int_Tables_number       1
_symmetry_cell_setting            triclinic
loop_
_symmetry_equiv_pos_as_xyz
  x,y,z
_cell_length_a                    12.55587
_cell_length_b                    12.55587
_cell_length_c                    12.55587
_cell_angle_alpha                 90.0
_cell_angle_beta                  90.0
_cell_angle_gamma                 90.0
loop_
_atom_site_label
_atom_site_type_symbol
_atom_site_fract_x
_atom_site_fract_y
_atom_site_fract_z
V1    V   0.10474  0.16106  0.28262
V2    V   0.10474  0.16106  0.71738
V3    V   0.10474  0.21738  0.33894
V4    V   0.10474  0.21738  0.66106
V5    V   0.10474  0.28262  0.16106
V6    V   0.10474  0.28262  0.83894
V7    V   0.10474  0.33894  0.21738
V8    V   0.10474  0.33894  0.78262
V9    V   0.10474  0.66106  0.21738
V10   V   0.10474  0.66106  0.78262
V11   V   0.10474  0.71738  0.16106
V12   V   0.10474  0.71738  0.83894
V13   V   0.10474  0.78262  0.33894
V14   V   0.10474  0.78262  0.66106
V15   V   0.10474  0.83894  0.28262
V16   V   0.10474  0.83894  0.71738
V17   V   0.16106  0.10474  0.28262
V18   V   0.16106  0.10474  0.71738
V19   V   0.16106  0.21738  0.39526
V20   V   0.16106  0.21738  0.60474
V21   V   0.16106  0.28262  0.10474
V22   V   0.16106  0.28262  0.89526
V23   V   0.16106  0.39526  0.21738
V24   V   0.16106  0.39526  0.78262
V25   V   0.16106  0.60474  0.21738
V26   V   0.16106  0.60474  0.78262
V27   V   0.16106  0.71738  0.10474
V28   V   0.16106  0.71738  0.89526
V29   V   0.16106  0.78262  0.39526
V30   V   0.16106  0.78262  0.60474
V31   V   0.16106  0.89526  0.28262
V32   V   0.16106  0.89526  0.71738
V33   V   0.21738  0.10474  0.33894
V34   V   0.21738  0.10474  0.66106
V35   V   0.21738  0.16106  0.39526
V36   V   0.21738  0.16106  0.60474
V37   V   0.21738  0.33894  0.10474
V38   V   0.21738  0.33894  0.89526
V39   V   0.21738  0.39526  0.16106
V40   V   0.21738  0.39526  0.83894
V41   V   0.21738  0.60474  0.16106
V42   V   0.21738  0.60474  0.83894
V43   V   0.21738  0.66106  0.10474
V44   V   0.21738  0.66106  0.89526
V45   V   0.21738  0.83894  0.39526
V46   V   0.21738  0.83894  0.60474
V47   V   0.21738  0.89526  0.33894
V48   V   0.21738  0.89526  0.66106
V49   V   0.28262  0.10474  0.16106
V50   V   0.28262  0.10474  0.83894
V51   V   0.28262  0.16106  0.10474
V52   V   0.28262  0.16106  0.89526
V53   V   0.28262  0.33894  0.39526
V54   V   0.28262  0.33894  0.60474
V55   V   0.28262  0.39526  0.33894
V56   V   0.28262  0.39526  0.66106
V57   V   0.28262  0.60474  0.33894
V58   V   0.28262  0.60474  0.66106
V59   V   0.28262  0.66106  0.39526
V60   V   0.28262  0.66106  0.60474
V61   V   0.28262  0.83894  0.10474
V62   V   0.28262  0.83894  0.89526
V63   V   0.28262  0.89526  0.16106
V64   V   0.28262  0.89526  0.83894
V65   V   0.33894  0.10474  0.21738
V66   V   0.33894  0.10474  0.78262
V67   V   0.33894  0.21738  0.10474
V68   V   0.33894  0.21738  0.89526
V69   V   0.33894  0.28262  0.39526
V70   V   0.33894  0.28262  0.60474
V71   V   0.33894  0.39526  0.28262
V72   V   0.33894  0.39526  0.71738
V73   V   0.33894  0.60474  0.28262
V74   V   0.33894  0.60474  0.71738
V75   V   0.33894  0.71738  0.39526
V76   V   0.33894  0.71738  0.60474
V77   V   0.33894  0.78262  0.10474
V78   V   0.33894  0.78262  0.89526
V79   V   0.33894  0.89526  0.21738
V80   V   0.33894  0.89526  0.78262
V81   V   0.39526  0.16106  0.21738
V82   V   0.39526  0.16106  0.78262
V83   V   0.39526  0.21738  0.16106
V84   V   0.39526  0.21738  0.83894
V85   V   0.39526  0.28262  0.33894
V86   V   0.39526  0.28262  0.66106
V87   V   0.39526  0.33894  0.28262
V88   V   0.39526  0.33894  0.71738
V89   V   0.39526  0.66106  0.28262
V90   V   0.39526  0.66106  0.71738
V91   V   0.39526  0.71738  0.33894
V92   V   0.39526  0.71738  0.66106
V93   V   0.39526  0.78262  0.16106
V94   V   0.39526  0.78262  0.83894
V95   V   0.39526  0.83894  0.21738
V96   V   0.39526  0.83894  0.78262
V97   V   0.60474  0.16106  0.21738
V98   V   0.60474  0.16106  0.78262
V99   V   0.60474  0.21738  0.16106
V100  V   0.60474  0.21738  0.83894
V101  V   0.60474  0.28262  0.33894
V102  V   0.60474  0.28262  0.66106
V103  V   0.60474  0.33894  0.28262
V104  V   0.60474  0.33894  0.71738
V105  V   0.60474  0.66106  0.28262
V106  V   0.60474  0.66106  0.71738
V107  V   0.60474  0.71738  0.33894
V108  V   0.60474  0.71738  0.66106
V109  V   0.60474  0.78262  0.16106
V110  V   0.60474  0.78262  0.83894
V111  V   0.60474  0.83894  0.21738
V112  V   0.60474  0.83894  0.78262
V113  V   0.66106  0.10474  0.21738
V114  V   0.66106  0.10474  0.78262
V115  V   0.66106  0.21738  0.10474
V116  V   0.66106  0.21738  0.89526
V117  V   0.66106  0.28262  0.39526
V118  V   0.66106  0.28262  0.60474
V119  V   0.66106  0.39526  0.28262
V120  V   0.66106  0.39526  0.71738
V121  V   0.66106  0.60474  0.28262
V122  V   0.66106  0.60474  0.71738
V123  V   0.66106  0.71738  0.39526
V124  V   0.66106  0.71738  0.60474
V125  V   0.66106  0.78262  0.10474
V126  V   0.66106  0.78262  0.89526
V127  V   0.66106  0.89526  0.21738
V128  V   0.66106  0.89526  0.78262
V129  V   0.71738  0.10474  0.16106
V130  V   0.71738  0.10474  0.83894
V131  V   0.71738  0.16106  0.10474
V132  V   0.71738  0.16106  0.89526
V133  V   0.71738  0.33894  0.39526
V134  V   0.71738  0.33894  0.60474
V135  V   0.71738  0.39526  0.33894
V136  V   0.71738  0.39526  0.66106
V137  V   0.71738  0.60474  0.33894
V138  V   0.71738  0.60474  0.66106
V139  V   0.71738  0.66106  0.39526
V140  V   0.71738  0.66106  0.60474
V141  V   0.71738  0.83894  0.10474
V142  V   0.71738  0.83894  0.89526
V143  V   0.71738  0.89526  0.16106
V144  V   0.71738  0.89526  0.83894
V145  V   0.78262  0.10474  0.33894
V146  V   0.78262  0.10474  0.66106
V147  V   0.78262  0.16106  0.39526
V148  V   0.78262  0.16106  0.60474
V149  V   0.78262  0.33894  0.10474
V150  V   0.78262  0.33894  0.89526
V151  V   0.78262  0.39526  0.16106
V152  V   0.78262  0.39526  0.83894
V153  V   0.78262  0.60474  0.16106
V154  V   0.78262  0.60474  0.83894
V155  V   0.78262  0.66106  0.10474
V156  V   0.78262  0.66106  0.89526
V157  V   0.78262  0.83894  0.39526
V158  V   0.78262  0.83894  0.60474
V159  V   0.78262  0.89526  0.33894
V160  V   0.78262  0.89526  0.66106
V161  V   0.83894  0.10474  0.28262
V162  V   0.83894  0.10474  0.71738
V163  V   0.83894  0.21738  0.39526
V164  V   0.83894  0.21738  0.60474
V165  V   0.83894  0.28262  0.10474
V166  V   0.83894  0.28262  0.89526
V167  V   0.83894  0.39526  0.21738
V168  V   0.83894  0.39526  0.78262
V169  V   0.83894  0.60474  0.21738
V170  V   0.83894  0.60474  0.78262
V171  V   0.83894  0.71738  0.10474
V172  V   0.83894  0.71738  0.89526
V173  V   0.83894  0.78262  0.39526
V174  V   0.83894  0.78262  0.60474
V175  V   0.83894  0.89526  0.28262
V176  V   0.83894  0.89526  0.71738
V177  V   0.89526  0.16106  0.28262
V178  V   0.89526  0.16106  0.71738
V179  V   0.89526  0.21738  0.33894
V180  V   0.89526  0.21738  0.66106
V181  V   0.89526  0.28262  0.16106
V182  V   0.89526  0.28262  0.83894
V183  V   0.89526  0.33894  0.21738
V184  V   0.89526  0.33894  0.78262
V185  V   0.89526  0.66106  0.21738
V186  V   0.89526  0.66106  0.78262
V187  V   0.89526  0.71738  0.16106
V188  V   0.89526  0.71738  0.83894
V189  V   0.89526  0.78262  0.33894
V190  V   0.89526  0.78262  0.66106
V191  V   0.89526  0.83894  0.28262
V192  V   0.89526  0.83894  0.71738
EC1    EC   0.03982  0.19381  0.25013
EC2    EC   0.03982  0.19381  0.74987
EC3    EC   0.03982  0.24987  0.30619
EC4    EC   0.03982  0.24987  0.69381
EC5    EC   0.03982  0.25013  0.19381
EC6    EC   0.03982  0.25013  0.80619
EC7    EC   0.03982  0.30619  0.24987
EC8    EC   0.03982  0.30619  0.75013
EC9    EC   0.03982  0.69381  0.24987
EC10   EC   0.03982  0.69381  0.75013
EC11   EC   0.03982  0.74987  0.19381
EC12   EC   0.03982  0.74987  0.80619
EC13   EC   0.03982  0.75013  0.30619
EC14   EC   0.03982  0.75013  0.69381
EC15   EC   0.03982  0.80619  0.25013
EC16   EC   0.03982  0.80619  0.74987
EC17   EC   0.19381  0.03982  0.25013
EC18   EC   0.19381  0.03982  0.74987
EC19   EC   0.19381  0.24987  0.46018
EC20   EC   0.19381  0.24987  0.53982
EC21   EC   0.19381  0.25013  0.03982
EC22   EC   0.19381  0.25013  0.96018
EC23   EC   0.19381  0.46018  0.24987
EC24   EC   0.19381  0.46018  0.75013
EC25   EC   0.19381  0.53982  0.24987
EC26   EC   0.19381  0.53982  0.75013
EC27   EC   0.19381  0.74987  0.03982
EC28   EC   0.19381  0.74987  0.96018
EC29   EC   0.19381  0.75013  0.46018
EC30   EC   0.19381  0.75013  0.53982
EC31   EC   0.19381  0.96018  0.25013
EC32   EC   0.19381  0.96018  0.74987
EC33   EC   0.24987  0.03982  0.30619
EC34   EC   0.24987  0.03982  0.69381
EC35   EC   0.24987  0.19381  0.46018
EC36   EC   0.24987  0.19381  0.53982
EC37   EC   0.24987  0.30619  0.03982
EC38   EC   0.24987  0.30619  0.96018
EC39   EC   0.24987  0.46018  0.19381
EC40   EC   0.24987  0.46018  0.80619
EC41   EC   0.24987  0.53982  0.19381
EC42   EC   0.24987  0.53982  0.80619
EC43   EC   0.24987  0.69381  0.03982
EC44   EC   0.24987  0.69381  0.96018
EC45   EC   0.24987  0.80619  0.46018
EC46   EC   0.24987  0.80619  0.53982
EC47   EC   0.24987  0.96018  0.30619
EC48   EC   0.24987  0.96018  0.69381
EC49   EC   0.25013  0.03982  0.19381
EC50   EC   0.25013  0.03982  0.80619
EC51   EC   0.25013  0.19381  0.03982
EC52   EC   0.25013  0.19381  0.96018
EC53   EC   0.25013  0.30619  0.46018
EC54   EC   0.25013  0.30619  0.53982
EC55   EC   0.25013  0.46018  0.30619
EC56   EC   0.25013  0.46018  0.69381
EC57   EC   0.25013  0.53982  0.30619
EC58   EC   0.25013  0.53982  0.69381
EC59   EC   0.25013  0.69381  0.46018
EC60   EC   0.25013  0.69381  0.53982
EC61   EC   0.25013  0.80619  0.03982
EC62   EC   0.25013  0.80619  0.96018
EC63   EC   0.25013  0.96018  0.19381
EC64   EC   0.25013  0.96018  0.80619
EC65   EC   0.30619  0.03982  0.24987
EC66   EC   0.30619  0.03982  0.75013
EC67   EC   0.30619  0.24987  0.03982
EC68   EC   0.30619  0.24987  0.96018
EC69   EC   0.30619  0.25013  0.46018
EC70   EC   0.30619  0.25013  0.53982
EC71   EC   0.30619  0.46018  0.25013
EC72   EC   0.30619  0.46018  0.74987
EC73   EC   0.30619  0.53982  0.25013
EC74   EC   0.30619  0.53982  0.74987
EC75   EC   0.30619  0.74987  0.46018
EC76   EC   0.30619  0.74987  0.53982
EC77   EC   0.30619  0.75013  0.03982
EC78   EC   0.30619  0.75013  0.96018
EC79   EC   0.30619  0.96018  0.24987
EC80   EC   0.30619  0.96018  0.75013
EC81   EC   0.46018  0.19381  0.24987
EC82   EC   0.46018  0.19381  0.75013
EC83   EC   0.46018  0.24987  0.19381
EC84   EC   0.46018  0.24987  0.80619
EC85   EC   0.46018  0.25013  0.30619
EC86   EC   0.46018  0.25013  0.69381
EC87   EC   0.46018  0.30619  0.25013
EC88   EC   0.46018  0.30619  0.74987
EC89   EC   0.46018  0.69381  0.25013
EC90   EC   0.46018  0.69381  0.74987
EC91   EC   0.46018  0.74987  0.30619
EC92   EC   0.46018  0.74987  0.69381
EC93   EC   0.46018  0.75013  0.19381
EC94   EC   0.46018  0.75013  0.80619
EC95   EC   0.46018  0.80619  0.24987
EC96   EC   0.46018  0.80619  0.75013
EC97   EC   0.53982  0.19381  0.24987
EC98   EC   0.53982  0.19381  0.75013
EC99   EC   0.53982  0.24987  0.19381
EC100  EC   0.53982  0.24987  0.80619
EC101  EC   0.53982  0.25013  0.30619
EC102  EC   0.53982  0.25013  0.69381
EC103  EC   0.53982  0.30619  0.25013
EC104  EC   0.53982  0.30619  0.74987
EC105  EC   0.53982  0.69381  0.25013
EC106  EC   0.53982  0.69381  0.74987
EC107  EC   0.53982  0.74987  0.30619
EC108  EC   0.53982  0.74987  0.69381
EC109  EC   0.53982  0.75013  0.19381
EC110  EC   0.53982  0.75013  0.80619
EC111  EC   0.53982  0.80619  0.24987
EC112  EC   0.53982  0.80619  0.75013
EC113  EC   0.69381  0.03982  0.24987
EC114  EC   0.69381  0.03982  0.75013
EC115  EC   0.69381  0.24987  0.03982
EC116  EC   0.69381  0.24987  0.96018
EC117  EC   0.69381  0.25013  0.46018
EC118  EC   0.69381  0.25013  0.53982
EC119  EC   0.69381  0.46018  0.25013
EC120  EC   0.69381  0.46018  0.74987
EC121  EC   0.69381  0.53982  0.25013
EC122  EC   0.69381  0.53982  0.74987
EC123  EC   0.69381  0.74987  0.46018
EC124  EC   0.69381  0.74987  0.53982
EC125  EC   0.69381  0.75013  0.03982
EC126  EC   0.69381  0.75013  0.96018
EC127  EC   0.69381  0.96018  0.24987
EC128  EC   0.69381  0.96018  0.75013
EC129  EC   0.74987  0.03982  0.19381
EC130  EC   0.74987  0.03982  0.80619
EC131  EC   0.74987  0.19381  0.03982
EC132  EC   0.74987  0.19381  0.96018
EC133  EC   0.74987  0.30619  0.46018
EC134  EC   0.74987  0.30619  0.53982
EC135  EC   0.74987  0.46018  0.30619
EC136  EC   0.74987  0.46018  0.69381
EC137  EC   0.74987  0.53982  0.30619
EC138  EC   0.74987  0.53982  0.69381
EC139  EC   0.74987  0.69381  0.46018
EC140  EC   0.74987  0.69381  0.53982
EC141  EC   0.74987  0.80619  0.03982
EC142  EC   0.74987  0.80619  0.96018
EC143  EC   0.74987  0.96018  0.19381
EC144  EC   0.74987  0.96018  0.80619
EC145  EC   0.75013  0.03982  0.30619
EC146  EC   0.75013  0.03982  0.69381
EC147  EC   0.75013  0.19381  0.46018
EC148  EC   0.75013  0.19381  0.53982
EC149  EC   0.75013  0.30619  0.03982
EC150  EC   0.75013  0.30619  0.96018
EC151  EC   0.75013  0.46018  0.19381
EC152  EC   0.75013  0.46018  0.80619
EC153  EC   0.75013  0.53982  0.19381
EC154  EC   0.75013  0.53982  0.80619
EC155  EC   0.75013  0.69381  0.03982
EC156  EC   0.75013  0.69381  0.96018
EC157  EC   0.75013  0.80619  0.46018
EC158  EC   0.75013  0.80619  0.53982
EC159  EC   0.75013  0.96018  0.30619
EC160  EC   0.75013  0.96018  0.69381
EC161  EC   0.80619  0.03982  0.25013
EC162  EC   0.80619  0.03982  0.74987
EC163  EC   0.80619  0.24987  0.46018
EC164  EC   0.80619  0.24987  0.53982
EC165  EC   0.80619  0.25013  0.03982
EC166  EC   0.80619  0.25013  0.96018
EC167  EC   0.80619  0.46018  0.24987
EC168  EC   0.80619  0.46018  0.75013
EC169  EC   0.80619  0.53982  0.24987
EC170  EC   0.80619  0.53982  0.75013
EC171  EC   0.80619  0.74987  0.03982
EC172  EC   0.80619  0.74987  0.96018
EC173  EC   0.80619  0.75013  0.46018
EC174  EC   0.80619  0.75013  0.53982
EC175  EC   0.80619  0.96018  0.25013
EC176  EC   0.80619  0.96018  0.74987
EC177  EC   0.96018  0.19381  0.25013
EC178  EC   0.96018  0.19381  0.74987
EC179  EC   0.96018  0.24987  0.30619
EC180  EC   0.96018  0.24987  0.69381
EC181  EC   0.96018  0.25013  0.19381
EC182  EC   0.96018  0.25013  0.80619
EC183  EC   0.96018  0.30619  0.24987
EC184  EC   0.96018  0.30619  0.75013
EC185  EC   0.96018  0.69381  0.24987
EC186  EC   0.96018  0.69381  0.75013
EC187  EC   0.96018  0.74987  0.19381
EC188  EC   0.96018  0.74987  0.80619
EC189  EC   0.96018  0.75013  0.30619
EC190  EC   0.96018  0.75013  0.69381
EC191  EC   0.96018  0.80619  0.25013
EC192  EC   0.96018  0.80619  0.74987
E1    E   0.00000  0.19381  0.25013
E2    E   0.00000  0.19381  0.74987
E3    E   0.00000  0.24987  0.30619
E4    E   0.00000  0.24987  0.69381
E5    E   0.00000  0.25013  0.19381
E6    E   0.00000  0.25013  0.80619
E7    E   0.00000  0.30619  0.24987
E8    E   0.00000  0.30619  0.75013
E9    E   0.00000  0.69381  0.24987
E10   E   0.00000  0.69381  0.75013
E11   E   0.00000  0.74987  0.19381
E12   E   0.00000  0.74987  0.80619
E13   E   0.00000  0.75013  0.30619
E14   E   0.00000  0.75013  0.69381
E15   E   0.00000  0.80619  0.25013
E16   E   0.00000  0.80619  0.74987
E17   E   0.03982  0.22197  0.22197
E18   E   0.03982  0.22197  0.77803
E19   E   0.03982  0.27803  0.27803
E20   E   0.03982  0.27803  0.72197
E21   E   0.03982  0.72197  0.27803
E22   E   0.03982  0.72197  0.72197
E23   E   0.03982  0.77803  0.22197
E24   E   0.03982  0.77803  0.77803
E25   E   0.07228  0.17744  0.26637
E26   E   0.07228  0.17744  0.73363
E27   E   0.07228  0.23363  0.32256
E28   E   0.07228  0.23363  0.67744
E29   E   0.07228  0.26637  0.17744
E30   E   0.07228  0.26637  0.82256
E31   E   0.07228  0.32256  0.23363
E32   E   0.07228  0.32256  0.76637
E33   E   0.07228  0.67744  0.23363
E34   E   0.07228  0.67744  0.76637
E35   E   0.07228  0.73363  0.17744
E36   E   0.07228  0.73363  0.82256
E37   E   0.07228  0.76637  0.32256
E38   E   0.07228  0.76637  0.67744
E39   E   0.07228  0.82256  0.26637
E40   E   0.07228  0.82256  0.73363
E41   E   0.10474  0.18922  0.31078
E42   E   0.10474  0.18922  0.68922
E43   E   0.10474  0.31078  0.18922
E44   E   0.10474  0.31078  0.81078
E45   E   0.10474  0.68922  0.18922
E46   E   0.10474  0.68922  0.81078
E47   E   0.10474  0.81078  0.31078
E48   E   0.10474  0.81078  0.68922
E49   E   0.13290  0.13290  0.28262
E50   E   0.13290  0.13290  0.71738
E51   E   0.13290  0.21738  0.36710
E52   E   0.13290  0.21738  0.63290
E53   E   0.13290  0.28262  0.13290
E54   E   0.13290  0.28262  0.86710
E55   E   0.13290  0.36710  0.21738
E56   E   0.13290  0.36710  0.78262
E57   E   0.13290  0.63290  0.21738
E58   E   0.13290  0.63290  0.78262
E59   E   0.13290  0.71738  0.13290
E60   E   0.13290  0.71738  0.86710
E61   E   0.13290  0.78262  0.36710
E62   E   0.13290  0.78262  0.63290
E63   E   0.13290  0.86710  0.28262
E64   E   0.13290  0.86710  0.71738
E65   E   0.17744  0.07228  0.26637
E66   E   0.17744  0.07228  0.73363
E67   E   0.17744  0.23363  0.42772
E68   E   0.17744  0.23363  0.57228
E69   E   0.17744  0.26637  0.07228
E70   E   0.17744  0.26637  0.92772
E71   E   0.17744  0.42772  0.23363
E72   E   0.17744  0.42772  0.76637
E73   E   0.17744  0.57228  0.23363
E74   E   0.17744  0.57228  0.76637
E75   E   0.17744  0.73363  0.07228
E76   E   0.17744  0.73363  0.92772
E77   E   0.17744  0.76637  0.42772
E78   E   0.17744  0.76637  0.57228
E79   E   0.17744  0.92772  0.26637
E80   E   0.17744  0.92772  0.73363
E81   E   0.18922  0.10474  0.31078
E82   E   0.18922  0.10474  0.68922
E83   E   0.18922  0.18922  0.39526
E84   E   0.18922  0.18922  0.60474
E85   E   0.18922  0.31078  0.10474
E86   E   0.18922  0.31078  0.89526
E87   E   0.18922  0.39526  0.18922
E88   E   0.18922  0.39526  0.81078
E89   E   0.18922  0.60474  0.18922
E90   E   0.18922  0.60474  0.81078
E91   E   0.18922  0.68922  0.10474
E92   E   0.18922  0.68922  0.89526
E93   E   0.18922  0.81078  0.39526
E94   E   0.18922  0.81078  0.60474
E95   E   0.18922  0.89526  0.31078
E96   E   0.18922  0.89526  0.68922
E97   E   0.19381  0.00000  0.25013
E98   E   0.19381  0.00000  0.74987
E99   E   0.19381  0.24987  0.50000
E100  E   0.19381  0.25013  0.00000
E101  E   0.19381  0.50000  0.24987
E102  E   0.19381  0.50000  0.75013
E103  E   0.19381  0.74987  0.00000
E104  E   0.19381  0.75013  0.50000
E105  E   0.21738  0.13290  0.36710
E106  E   0.21738  0.13290  0.63290
E107  E   0.21738  0.36710  0.13290
E108  E   0.21738  0.36710  0.86710
E109  E   0.21738  0.63290  0.13290
E110  E   0.21738  0.63290  0.86710
E111  E   0.21738  0.86710  0.36710
E112  E   0.21738  0.86710  0.63290
E113  E   0.22197  0.03982  0.22197
E114  E   0.22197  0.03982  0.77803
E115  E   0.22197  0.22197  0.03982
E116  E   0.22197  0.22197  0.96018
E117  E   0.22197  0.27803  0.46018
E118  E   0.22197  0.27803  0.53982
E119  E   0.22197  0.46018  0.27803
E120  E   0.22197  0.46018  0.72197
E121  E   0.22197  0.53982  0.27803
E122  E   0.22197  0.53982  0.72197
E123  E   0.22197  0.72197  0.46018
E124  E   0.22197  0.72197  0.53982
E125  E   0.22197  0.77803  0.03982
E126  E   0.22197  0.77803  0.96018
E127  E   0.22197  0.96018  0.22197
E128  E   0.22197  0.96018  0.77803
E129  E   0.23363  0.07228  0.32256
E130  E   0.23363  0.07228  0.67744
E131  E   0.23363  0.17744  0.42772
E132  E   0.23363  0.17744  0.57228
E133  E   0.23363  0.32256  0.07228
E134  E   0.23363  0.32256  0.92772
E135  E   0.23363  0.42772  0.17744
E136  E   0.23363  0.42772  0.82256
E137  E   0.23363  0.57228  0.17744
E138  E   0.23363  0.57228  0.82256
E139  E   0.23363  0.67744  0.07228
E140  E   0.23363  0.67744  0.92772
E141  E   0.23363  0.82256  0.42772
E142  E   0.23363  0.82256  0.57228
E143  E   0.23363  0.92772  0.32256
E144  E   0.23363  0.92772  0.67744
E145  E   0.24987  0.00000  0.30619
E146  E   0.24987  0.00000  0.69381
E147  E   0.24987  0.19381  0.50000
E148  E   0.24987  0.30619  0.00000
E149  E   0.24987  0.50000  0.19381
E150  E   0.24987  0.50000  0.80619
E151  E   0.24987  0.69381  0.00000
E152  E   0.24987  0.80619  0.50000
E153  E   0.25013  0.00000  0.19381
E154  E   0.25013  0.00000  0.80619
E155  E   0.25013  0.19381  0.00000
E156  E   0.25013  0.30619  0.50000
E157  E   0.25013  0.50000  0.30619
E158  E   0.25013  0.50000  0.69381
E159  E   0.25013  0.69381  0.50000
E160  E   0.25013  0.80619  0.00000
E161  E   0.26637  0.07228  0.17744
E162  E   0.26637  0.07228  0.82256
E163  E   0.26637  0.17744  0.07228
E164  E   0.26637  0.17744  0.92772
E165  E   0.26637  0.32256  0.42772
E166  E   0.26637  0.32256  0.57228
E167  E   0.26637  0.42772  0.32256
E168  E   0.26637  0.42772  0.67744
E169  E   0.26637  0.57228  0.32256
E170  E   0.26637  0.57228  0.67744
E171  E   0.26637  0.67744  0.42772
E172  E   0.26637  0.67744  0.57228
E173  E   0.26637  0.82256  0.07228
E174  E   0.26637  0.82256  0.92772
E175  E   0.26637  0.92772  0.17744
E176  E   0.26637  0.92772  0.82256
E177  E   0.27803  0.03982  0.27803
E178  E   0.27803  0.03982  0.72197
E179  E   0.27803  0.22197  0.46018
E180  E   0.27803  0.22197  0.53982
E181  E   0.27803  0.27803  0.03982
E182  E   0.27803  0.27803  0.96018
E183  E   0.27803  0.46018  0.22197
E184  E   0.27803  0.46018  0.77803
E185  E   0.27803  0.53982  0.22197
E186  E   0.27803  0.53982  0.77803
E187  E   0.27803  0.72197  0.03982
E188  E   0.27803  0.72197  0.96018
E189  E   0.27803  0.77803  0.46018
E190  E   0.27803  0.77803  0.53982
E191  E   0.27803  0.96018  0.27803
E192  E   0.27803  0.96018  0.72197
E193  E   0.28262  0.13290  0.13290
E194  E   0.28262  0.13290  0.86710
E195  E   0.28262  0.36710  0.36710
E196  E   0.28262  0.36710  0.63290
E197  E   0.28262  0.63290  0.36710
E198  E   0.28262  0.63290  0.63290
E199  E   0.28262  0.86710  0.13290
E200  E   0.28262  0.86710  0.86710
E201  E   0.30619  0.00000  0.24987
E202  E   0.30619  0.00000  0.75013
E203  E   0.30619  0.24987  0.00000
E204  E   0.30619  0.25013  0.50000
E205  E   0.30619  0.50000  0.25013
E206  E   0.30619  0.50000  0.74987
E207  E   0.30619  0.74987  0.50000
E208  E   0.30619  0.75013  0.00000
E209  E   0.31078  0.10474  0.18922
E210  E   0.31078  0.10474  0.81078
E211  E   0.31078  0.18922  0.10474
E212  E   0.31078  0.18922  0.89526
E213  E   0.31078  0.31078  0.39526
E214  E   0.31078  0.31078  0.60474
E215  E   0.31078  0.39526  0.31078
E216  E   0.31078  0.39526  0.68922
E217  E   0.31078  0.60474  0.31078
E218  E   0.31078  0.60474  0.68922
E219  E   0.31078  0.68922  0.39526
E220  E   0.31078  0.68922  0.60474
E221  E   0.31078  0.81078  0.10474
E222  E   0.31078  0.81078  0.89526
E223  E   0.31078  0.89526  0.18922
E224  E   0.31078  0.89526  0.81078
E225  E   0.32256  0.07228  0.23363
E226  E   0.32256  0.07228  0.76637
E227  E   0.32256  0.23363  0.07228
E228  E   0.32256  0.23363  0.92772
E229  E   0.32256  0.26637  0.42772
E230  E   0.32256  0.26637  0.57228
E231  E   0.32256  0.42772  0.26637
E232  E   0.32256  0.42772  0.73363
E233  E   0.32256  0.57228  0.26637
E234  E   0.32256  0.57228  0.73363
E235  E   0.32256  0.73363  0.42772
E236  E   0.32256  0.73363  0.57228
E237  E   0.32256  0.76637  0.07228
E238  E   0.32256  0.76637  0.92772
E239  E   0.32256  0.92772  0.23363
E240  E   0.32256  0.92772  0.76637
E241  E   0.36710  0.13290  0.21738
E242  E   0.36710  0.13290  0.78262
E243  E   0.36710  0.21738  0.13290
E244  E   0.36710  0.21738  0.86710
E245  E   0.36710  0.28262  0.36710
E246  E   0.36710  0.28262  0.63290
E247  E   0.36710  0.36710  0.28262
E248  E   0.36710  0.36710  0.71738
E249  E   0.36710  0.63290  0.28262
E250  E   0.36710  0.63290  0.71738
E251  E   0.36710  0.71738  0.36710
E252  E   0.36710  0.71738  0.63290
E253  E   0.36710  0.78262  0.13290
E254  E   0.36710  0.78262  0.86710
E255  E   0.36710  0.86710  0.21738
E256  E   0.36710  0.86710  0.78262
E257  E   0.39526  0.18922  0.18922
E258  E   0.39526  0.18922  0.81078
E259  E   0.39526  0.31078  0.31078
E260  E   0.39526  0.31078  0.68922
E261  E   0.39526  0.68922  0.31078
E262  E   0.39526  0.68922  0.68922
E263  E   0.39526  0.81078  0.18922
E264  E   0.39526  0.81078  0.81078
E265  E   0.42772  0.17744  0.23363
E266  E   0.42772  0.17744  0.76637
E267  E   0.42772  0.23363  0.17744
E268  E   0.42772  0.23363  0.82256
E269  E   0.42772  0.26637  0.32256
E270  E   0.42772  0.26637  0.67744
E271  E   0.42772  0.32256  0.26637
E272  E   0.42772  0.32256  0.73363
E273  E   0.42772  0.67744  0.26637
E274  E   0.42772  0.67744  0.73363
E275  E   0.42772  0.73363  0.32256
E276  E   0.42772  0.73363  0.67744
E277  E   0.42772  0.76637  0.17744
E278  E   0.42772  0.76637  0.82256
E279  E   0.42772  0.82256  0.23363
E280  E   0.42772  0.82256  0.76637
E281  E   0.46018  0.22197  0.27803
E282  E   0.46018  0.22197  0.72197
E283  E   0.46018  0.27803  0.22197
E284  E   0.46018  0.27803  0.77803
E285  E   0.46018  0.72197  0.22197
E286  E   0.46018  0.72197  0.77803
E287  E   0.46018  0.77803  0.27803
E288  E   0.46018  0.77803  0.72197
E289  E   0.50000  0.19381  0.24987
E290  E   0.50000  0.19381  0.75013
E291  E   0.50000  0.24987  0.19381
E292  E   0.50000  0.24987  0.80619
E293  E   0.50000  0.25013  0.30619
E294  E   0.50000  0.25013  0.69381
E295  E   0.50000  0.30619  0.25013
E296  E   0.50000  0.30619  0.74987
E297  E   0.50000  0.69381  0.25013
E298  E   0.50000  0.69381  0.74987
E299  E   0.50000  0.74987  0.30619
E300  E   0.50000  0.74987  0.69381
E301  E   0.50000  0.75013  0.19381
E302  E   0.50000  0.75013  0.80619
E303  E   0.50000  0.80619  0.24987
E304  E   0.50000  0.80619  0.75013
E305  E   0.53982  0.22197  0.27803
E306  E   0.53982  0.22197  0.72197
E307  E   0.53982  0.27803  0.22197
E308  E   0.53982  0.27803  0.77803
E309  E   0.53982  0.72197  0.22197
E310  E   0.53982  0.72197  0.77803
E311  E   0.53982  0.77803  0.27803
E312  E   0.53982  0.77803  0.72197
E313  E   0.57228  0.17744  0.23363
E314  E   0.57228  0.17744  0.76637
E315  E   0.57228  0.23363  0.17744
E316  E   0.57228  0.23363  0.82256
E317  E   0.57228  0.26637  0.32256
E318  E   0.57228  0.26637  0.67744
E319  E   0.57228  0.32256  0.26637
E320  E   0.57228  0.32256  0.73363
E321  E   0.57228  0.67744  0.26637
E322  E   0.57228  0.67744  0.73363
E323  E   0.57228  0.73363  0.32256
E324  E   0.57228  0.73363  0.67744
E325  E   0.57228  0.76637  0.17744
E326  E   0.57228  0.76637  0.82256
E327  E   0.57228  0.82256  0.23363
E328  E   0.57228  0.82256  0.76637
E329  E   0.60474  0.18922  0.18922
E330  E   0.60474  0.18922  0.81078
E331  E   0.60474  0.31078  0.31078
E332  E   0.60474  0.31078  0.68922
E333  E   0.60474  0.68922  0.31078
E334  E   0.60474  0.68922  0.68922
E335  E   0.60474  0.81078  0.18922
E336  E   0.60474  0.81078  0.81078
E337  E   0.63290  0.13290  0.21738
E338  E   0.63290  0.13290  0.78262
E339  E   0.63290  0.21738  0.13290
E340  E   0.63290  0.21738  0.86710
E341  E   0.63290  0.28262  0.36710
E342  E   0.63290  0.28262  0.63290
E343  E   0.63290  0.36710  0.28262
E344  E   0.63290  0.36710  0.71738
E345  E   0.63290  0.63290  0.28262
E346  E   0.63290  0.63290  0.71738
E347  E   0.63290  0.71738  0.36710
E348  E   0.63290  0.71738  0.63290
E349  E   0.63290  0.78262  0.13290
E350  E   0.63290  0.78262  0.86710
E351  E   0.63290  0.86710  0.21738
E352  E   0.63290  0.86710  0.78262
E353  E   0.67744  0.07228  0.23363
E354  E   0.67744  0.07228  0.76637
E355  E   0.67744  0.23363  0.07228
E356  E   0.67744  0.23363  0.92772
E357  E   0.67744  0.26637  0.42772
E358  E   0.67744  0.26637  0.57228
E359  E   0.67744  0.42772  0.26637
E360  E   0.67744  0.42772  0.73363
E361  E   0.67744  0.57228  0.26637
E362  E   0.67744  0.57228  0.73363
E363  E   0.67744  0.73363  0.42772
E364  E   0.67744  0.73363  0.57228
E365  E   0.67744  0.76637  0.07228
E366  E   0.67744  0.76637  0.92772
E367  E   0.67744  0.92772  0.23363
E368  E   0.67744  0.92772  0.76637
E369  E   0.68922  0.10474  0.18922
E370  E   0.68922  0.10474  0.81078
E371  E   0.68922  0.18922  0.10474
E372  E   0.68922  0.18922  0.89526
E373  E   0.68922  0.31078  0.39526
E374  E   0.68922  0.31078  0.60474
E375  E   0.68922  0.39526  0.31078
E376  E   0.68922  0.39526  0.68922
E377  E   0.68922  0.60474  0.31078
E378  E   0.68922  0.60474  0.68922
E379  E   0.68922  0.68922  0.39526
E380  E   0.68922  0.68922  0.60474
E381  E   0.68922  0.81078  0.10474
E382  E   0.68922  0.81078  0.89526
E383  E   0.68922  0.89526  0.18922
E384  E   0.68922  0.89526  0.81078
E385  E   0.69381  0.00000  0.24987
E386  E   0.69381  0.00000  0.75013
E387  E   0.69381  0.24987  0.00000
E388  E   0.69381  0.25013  0.50000
E389  E   0.69381  0.50000  0.25013
E390  E   0.69381  0.50000  0.74987
E391  E   0.69381  0.74987  0.50000
E392  E   0.69381  0.75013  0.00000
E393  E   0.71738  0.13290  0.13290
E394  E   0.71738  0.13290  0.86710
E395  E   0.71738  0.36710  0.36710
E396  E   0.71738  0.36710  0.63290
E397  E   0.71738  0.63290  0.36710
E398  E   0.71738  0.63290  0.63290
E399  E   0.71738  0.86710  0.13290
E400  E   0.71738  0.86710  0.86710
E401  E   0.72197  0.03982  0.27803
E402  E   0.72197  0.03982  0.72197
E403  E   0.72197  0.22197  0.46018
E404  E   0.72197  0.22197  0.53982
E405  E   0.72197  0.27803  0.03982
E406  E   0.72197  0.27803  0.96018
E407  E   0.72197  0.46018  0.22197
E408  E   0.72197  0.46018  0.77803
E409  E   0.72197  0.53982  0.22197
E410  E   0.72197  0.53982  0.77803
E411  E   0.72197  0.72197  0.03982
E412  E   0.72197  0.72197  0.96018
E413  E   0.72197  0.77803  0.46018
E414  E   0.72197  0.77803  0.53982
E415  E   0.72197  0.96018  0.27803
E416  E   0.72197  0.96018  0.72197
E417  E   0.73363  0.07228  0.17744
E418  E   0.73363  0.07228  0.82256
E419  E   0.73363  0.17744  0.07228
E420  E   0.73363  0.17744  0.92772
E421  E   0.73363  0.32256  0.42772
E422  E   0.73363  0.32256  0.57228
E423  E   0.73363  0.42772  0.32256
E424  E   0.73363  0.42772  0.67744
E425  E   0.73363  0.57228  0.32256
E426  E   0.73363  0.57228  0.67744
E427  E   0.73363  0.67744  0.42772
E428  E   0.73363  0.67744  0.57228
E429  E   0.73363  0.82256  0.07228
E430  E   0.73363  0.82256  0.92772
E431  E   0.73363  0.92772  0.17744
E432  E   0.73363  0.92772  0.82256
E433  E   0.74987  0.00000  0.19381
E434  E   0.74987  0.00000  0.80619
E435  E   0.74987  0.19381  0.00000
E436  E   0.74987  0.30619  0.50000
E437  E   0.74987  0.50000  0.30619
E438  E   0.74987  0.50000  0.69381
E439  E   0.74987  0.69381  0.50000
E440  E   0.74987  0.80619  0.00000
E441  E   0.75013  0.00000  0.30619
E442  E   0.75013  0.00000  0.69381
E443  E   0.75013  0.19381  0.50000
E444  E   0.75013  0.30619  0.00000
E445  E   0.75013  0.50000  0.19381
E446  E   0.75013  0.50000  0.80619
E447  E   0.75013  0.69381  0.00000
E448  E   0.75013  0.80619  0.50000
E449  E   0.76637  0.07228  0.32256
E450  E   0.76637  0.07228  0.67744
E451  E   0.76637  0.17744  0.42772
E452  E   0.76637  0.17744  0.57228
E453  E   0.76637  0.32256  0.07228
E454  E   0.76637  0.32256  0.92772
E455  E   0.76637  0.42772  0.17744
E456  E   0.76637  0.42772  0.82256
E457  E   0.76637  0.57228  0.17744
E458  E   0.76637  0.57228  0.82256
E459  E   0.76637  0.67744  0.07228
E460  E   0.76637  0.67744  0.92772
E461  E   0.76637  0.82256  0.42772
E462  E   0.76637  0.82256  0.57228
E463  E   0.76637  0.92772  0.32256
E464  E   0.76637  0.92772  0.67744
E465  E   0.77803  0.03982  0.22197
E466  E   0.77803  0.03982  0.77803
E467  E   0.77803  0.22197  0.03982
E468  E   0.77803  0.22197  0.96018
E469  E   0.77803  0.27803  0.46018
E470  E   0.77803  0.27803  0.53982
E471  E   0.77803  0.46018  0.27803
E472  E   0.77803  0.46018  0.72197
E473  E   0.77803  0.53982  0.27803
E474  E   0.77803  0.53982  0.72197
E475  E   0.77803  0.72197  0.46018
E476  E   0.77803  0.72197  0.53982
E477  E   0.77803  0.77803  0.03982
E478  E   0.77803  0.77803  0.96018
E479  E   0.77803  0.96018  0.22197
E480  E   0.77803  0.96018  0.77803
E481  E   0.78262  0.13290  0.36710
E482  E   0.78262  0.13290  0.63290
E483  E   0.78262  0.36710  0.13290
E484  E   0.78262  0.36710  0.86710
E485  E   0.78262  0.63290  0.13290
E486  E   0.78262  0.63290  0.86710
E487  E   0.78262  0.86710  0.36710
E488  E   0.78262  0.86710  0.63290
E489  E   0.80619  0.00000  0.25013
E490  E   0.80619  0.00000  0.74987
E491  E   0.80619  0.24987  0.50000
E492  E   0.80619  0.25013  0.00000
E493  E   0.80619  0.50000  0.24987
E494  E   0.80619  0.50000  0.75013
E495  E   0.80619  0.74987  0.00000
E496  E   0.80619  0.75013  0.50000
E497  E   0.81078  0.10474  0.31078
E498  E   0.81078  0.10474  0.68922
E499  E   0.81078  0.18922  0.39526
E500  E   0.81078  0.18922  0.60474
E501  E   0.81078  0.31078  0.10474
E502  E   0.81078  0.31078  0.89526
E503  E   0.81078  0.39526  0.18922
E504  E   0.81078  0.39526  0.81078
E505  E   0.81078  0.60474  0.18922
E506  E   0.81078  0.60474  0.81078
E507  E   0.81078  0.68922  0.10474
E508  E   0.81078  0.68922  0.89526
E509  E   0.81078  0.81078  0.39526
E510  E   0.81078  0.81078  0.60474
E511  E   0.81078  0.89526  0.31078
E512  E   0.81078  0.89526  0.68922
E513  E   0.82256  0.07228  0.26637
E514  E   0.82256  0.07228  0.73363
E515  E   0.82256  0.23363  0.42772
E516  E   0.82256  0.23363  0.57228
E517  E   0.82256  0.26637  0.07228
E518  E   0.82256  0.26637  0.92772
E519  E   0.82256  0.42772  0.23363
E520  E   0.82256  0.42772  0.76637
E521  E   0.82256  0.57228  0.23363
E522  E   0.82256  0.57228  0.76637
E523  E   0.82256  0.73363  0.07228
E524  E   0.82256  0.73363  0.92772
E525  E   0.82256  0.76637  0.42772
E526  E   0.82256  0.76637  0.57228
E527  E   0.82256  0.92772  0.26637
E528  E   0.82256  0.92772  0.73363
E529  E   0.86710  0.13290  0.28262
E530  E   0.86710  0.13290  0.71738
E531  E   0.86710  0.21738  0.36710
E532  E   0.86710  0.21738  0.63290
E533  E   0.86710  0.28262  0.13290
E534  E   0.86710  0.28262  0.86710
E535  E   0.86710  0.36710  0.21738
E536  E   0.86710  0.36710  0.78262
E537  E   0.86710  0.63290  0.21738
E538  E   0.86710  0.63290  0.78262
E539  E   0.86710  0.71738  0.13290
E540  E   0.86710  0.71738  0.86710
E541  E   0.86710  0.78262  0.36710
E542  E   0.86710  0.78262  0.63290
E543  E   0.86710  0.86710  0.28262
E544  E   0.86710  0.86710  0.71738
E545  E   0.89526  0.18922  0.31078
E546  E   0.89526  0.18922  0.68922
E547  E   0.89526  0.31078  0.18922
E548  E   0.89526  0.31078  0.81078
E549  E   0.89526  0.68922  0.18922
E550  E   0.89526  0.68922  0.81078
E551  E   0.89526  0.81078  0.31078
E552  E   0.89526  0.81078  0.68922
E553  E   0.92772  0.17744  0.26637
E554  E   0.92772  0.17744  0.73363
E555  E   0.92772  0.23363  0.32256
E556  E   0.92772  0.23363  0.67744
E557  E   0.92772  0.26637  0.17744
E558  E   0.92772  0.26637  0.82256
E559  E   0.92772  0.32256  0.23363
E560  E   0.92772  0.32256  0.76637
E561  E   0.92772  0.67744  0.23363
E562  E   0.92772  0.67744  0.76637
E563  E   0.92772  0.73363  0.17744
E564  E   0.92772  0.73363  0.82256
E565  E   0.92772  0.76637  0.32256
E566  E   0.92772  0.76637  0.67744
E567  E   0.92772  0.82256  0.26637
E568  E   0.92772  0.82256  0.73363
E569  E   0.96018  0.22197  0.22197
E570  E   0.96018  0.22197  0.77803
E571  E   0.96018  0.27803  0.27803
E572  E   0.96018  0.27803  0.72197
E573  E   0.96018  0.72197  0.27803
E574  E   0.96018  0.72197  0.72197
E575  E   0.96018  0.77803  0.22197
E576  E   0.96018  0.77803  0.77803
loop_
