data_ocu-a_Im-3m  hall_number: 529, V_con: 5, EC_con: 4
_audit_creation_date              2025-03-06
_audit_creation_method            'MOFbuilder_1.0'
_symmetry_space_group_name_H-M    'P1'
_symmetry_Int_Tables_number       1
_symmetry_cell_setting            triclinic
loop_
_symmetry_equiv_pos_as_xyz
  x,y,z
_cell_length_a                    58.3757
_cell_length_b                    58.3757
_cell_length_c                    58.3757
_cell_angle_alpha                 90.0
_cell_angle_beta                  90.0
_cell_angle_gamma                 90.0
loop_
_atom_site_label
_atom_site_type_symbol
_atom_site_fract_x
_atom_site_fract_y
_atom_site_fract_z
V1    V   0.16925  0.16925  0.29038
V2    V   0.16925  0.16925  0.70962
V3    V   0.16925  0.29038  0.16925
V4    V   0.16925  0.29038  0.83075
V5    V   0.16925  0.70962  0.16925
V6    V   0.16925  0.70962  0.83075
V7    V   0.16925  0.83075  0.29038
V8    V   0.16925  0.83075  0.70962
V9    V   0.20962  0.33075  0.33075
V10   V   0.20962  0.33075  0.66925
V11   V   0.20962  0.66925  0.33075
V12   V   0.20962  0.66925  0.66925
V13   V   0.29038  0.16925  0.16925
V14   V   0.29038  0.16925  0.83075
V15   V   0.29038  0.83075  0.16925
V16   V   0.29038  0.83075  0.83075
V17   V   0.33075  0.20962  0.33075
V18   V   0.33075  0.20962  0.66925
V19   V   0.33075  0.33075  0.20962
V20   V   0.33075  0.33075  0.79038
V21   V   0.33075  0.66925  0.20962
V22   V   0.33075  0.66925  0.79038
V23   V   0.33075  0.79038  0.33075
V24   V   0.33075  0.79038  0.66925
V25   V   0.66925  0.20962  0.33075
V26   V   0.66925  0.20962  0.66925
V27   V   0.66925  0.33075  0.20962
V28   V   0.66925  0.33075  0.79038
V29   V   0.66925  0.66925  0.20962
V30   V   0.66925  0.66925  0.79038
V31   V   0.66925  0.79038  0.33075
V32   V   0.66925  0.79038  0.66925
V33   V   0.70962  0.16925  0.16925
V34   V   0.70962  0.16925  0.83075
V35   V   0.70962  0.83075  0.16925
V36   V   0.70962  0.83075  0.83075
V37   V   0.79038  0.33075  0.33075
V38   V   0.79038  0.33075  0.66925
V39   V   0.79038  0.66925  0.33075
V40   V   0.79038  0.66925  0.66925
V41   V   0.83075  0.16925  0.29038
V42   V   0.83075  0.16925  0.70962
V43   V   0.83075  0.29038  0.16925
V44   V   0.83075  0.29038  0.83075
V45   V   0.83075  0.70962  0.16925
V46   V   0.83075  0.70962  0.83075
V47   V   0.83075  0.83075  0.29038
V48   V   0.83075  0.83075  0.70962
EC1    EC   0.08565  0.08565  0.41435
EC2    EC   0.08565  0.08565  0.58565
EC3    EC   0.08565  0.41435  0.08565
EC4    EC   0.08565  0.41435  0.41435
EC5    EC   0.08565  0.41435  0.58565
EC6    EC   0.08565  0.41435  0.91435
EC7    EC   0.08565  0.58565  0.08565
EC8    EC   0.08565  0.58565  0.41435
EC9    EC   0.08565  0.58565  0.58565
EC10   EC   0.08565  0.58565  0.91435
EC11   EC   0.08565  0.91435  0.41435
EC12   EC   0.08565  0.91435  0.58565
EC13   EC   0.41435  0.08565  0.08565
EC14   EC   0.41435  0.08565  0.41435
EC15   EC   0.41435  0.08565  0.58565
EC16   EC   0.41435  0.08565  0.91435
EC17   EC   0.41435  0.41435  0.08565
EC18   EC   0.41435  0.41435  0.91435
EC19   EC   0.41435  0.58565  0.08565
EC20   EC   0.41435  0.58565  0.91435
EC21   EC   0.41435  0.91435  0.08565
EC22   EC   0.41435  0.91435  0.41435
EC23   EC   0.41435  0.91435  0.58565
EC24   EC   0.41435  0.91435  0.91435
EC25   EC   0.58565  0.08565  0.08565
EC26   EC   0.58565  0.08565  0.41435
EC27   EC   0.58565  0.08565  0.58565
EC28   EC   0.58565  0.08565  0.91435
EC29   EC   0.58565  0.41435  0.08565
EC30   EC   0.58565  0.41435  0.91435
EC31   EC   0.58565  0.58565  0.08565
EC32   EC   0.58565  0.58565  0.91435
EC33   EC   0.58565  0.91435  0.08565
EC34   EC   0.58565  0.91435  0.41435
EC35   EC   0.58565  0.91435  0.58565
EC36   EC   0.58565  0.91435  0.91435
EC37   EC   0.91435  0.08565  0.41435
EC38   EC   0.91435  0.08565  0.58565
EC39   EC   0.91435  0.41435  0.08565
EC40   EC   0.91435  0.41435  0.41435
EC41   EC   0.91435  0.41435  0.58565
EC42   EC   0.91435  0.41435  0.91435
EC43   EC   0.91435  0.58565  0.08565
EC44   EC   0.91435  0.58565  0.41435
EC45   EC   0.91435  0.58565  0.58565
EC46   EC   0.91435  0.58565  0.91435
EC47   EC   0.91435  0.91435  0.41435
EC48   EC   0.91435  0.91435  0.58565
E1    E   0.00000  0.08565  0.41435
E2    E   0.00000  0.08565  0.58565
E3    E   0.00000  0.41435  0.08565
E4    E   0.00000  0.41435  0.41435
E5    E   0.00000  0.41435  0.58565
E6    E   0.00000  0.41435  0.91435
E7    E   0.00000  0.58565  0.08565
E8    E   0.00000  0.58565  0.41435
E9    E   0.00000  0.58565  0.58565
E10   E   0.00000  0.58565  0.91435
E11   E   0.00000  0.91435  0.41435
E12   E   0.00000  0.91435  0.58565
E13   E   0.08565  0.00000  0.41435
E14   E   0.08565  0.00000  0.58565
E15   E   0.08565  0.08565  0.50000
E16   E   0.08565  0.41435  0.00000
E17   E   0.08565  0.41435  0.50000
E18   E   0.08565  0.50000  0.08565
E19   E   0.08565  0.50000  0.41435
E20   E   0.08565  0.50000  0.58565
E21   E   0.08565  0.50000  0.91435
E22   E   0.08565  0.58565  0.00000
E23   E   0.08565  0.58565  0.50000
E24   E   0.08565  0.91435  0.50000
E25   E   0.12745  0.12745  0.35236
E26   E   0.12745  0.12745  0.64764
E27   E   0.12745  0.35236  0.12745
E28   E   0.12745  0.35236  0.87255
E29   E   0.12745  0.64764  0.12745
E30   E   0.12745  0.64764  0.87255
E31   E   0.12745  0.87255  0.35236
E32   E   0.12745  0.87255  0.64764
E33   E   0.14764  0.37255  0.37255
E34   E   0.14764  0.37255  0.62745
E35   E   0.14764  0.62745  0.37255
E36   E   0.14764  0.62745  0.62745
E37   E   0.16925  0.22981  0.22981
E38   E   0.16925  0.22981  0.77019
E39   E   0.16925  0.77019  0.22981
E40   E   0.16925  0.77019  0.77019
E41   E   0.18943  0.25000  0.31057
E42   E   0.18943  0.25000  0.68943
E43   E   0.18943  0.31057  0.25000
E44   E   0.18943  0.31057  0.75000
E45   E   0.18943  0.68943  0.25000
E46   E   0.18943  0.68943  0.75000
E47   E   0.18943  0.75000  0.31057
E48   E   0.18943  0.75000  0.68943
E49   E   0.22981  0.16925  0.22981
E50   E   0.22981  0.16925  0.77019
E51   E   0.22981  0.22981  0.16925
E52   E   0.22981  0.22981  0.83075
E53   E   0.22981  0.77019  0.16925
E54   E   0.22981  0.77019  0.83075
E55   E   0.22981  0.83075  0.22981
E56   E   0.22981  0.83075  0.77019
E57   E   0.25000  0.18943  0.31057
E58   E   0.25000  0.18943  0.68943
E59   E   0.25000  0.31057  0.18943
E60   E   0.25000  0.31057  0.81057
E61   E   0.25000  0.68943  0.18943
E62   E   0.25000  0.68943  0.81057
E63   E   0.25000  0.81057  0.31057
E64   E   0.25000  0.81057  0.68943
E65   E   0.27019  0.27019  0.33075
E66   E   0.27019  0.27019  0.66925
E67   E   0.27019  0.33075  0.27019
E68   E   0.27019  0.33075  0.72981
E69   E   0.27019  0.66925  0.27019
E70   E   0.27019  0.66925  0.72981
E71   E   0.27019  0.72981  0.33075
E72   E   0.27019  0.72981  0.66925
E73   E   0.31057  0.18943  0.25000
E74   E   0.31057  0.18943  0.75000
E75   E   0.31057  0.25000  0.18943
E76   E   0.31057  0.25000  0.81057
E77   E   0.31057  0.75000  0.18943
E78   E   0.31057  0.75000  0.81057
E79   E   0.31057  0.81057  0.25000
E80   E   0.31057  0.81057  0.75000
E81   E   0.33075  0.27019  0.27019
E82   E   0.33075  0.27019  0.72981
E83   E   0.33075  0.72981  0.27019
E84   E   0.33075  0.72981  0.72981
E85   E   0.35236  0.12745  0.12745
E86   E   0.35236  0.12745  0.87255
E87   E   0.35236  0.87255  0.12745
E88   E   0.35236  0.87255  0.87255
E89   E   0.37255  0.14764  0.37255
E90   E   0.37255  0.14764  0.62745
E91   E   0.37255  0.37255  0.14764
E92   E   0.37255  0.37255  0.85236
E93   E   0.37255  0.62745  0.14764
E94   E   0.37255  0.62745  0.85236
E95   E   0.37255  0.85236  0.37255
E96   E   0.37255  0.85236  0.62745
E97   E   0.41435  0.00000  0.08565
E98   E   0.41435  0.00000  0.41435
E99   E   0.41435  0.00000  0.58565
E100  E   0.41435  0.00000  0.91435
E101  E   0.41435  0.08565  0.00000
E102  E   0.41435  0.08565  0.50000
E103  E   0.41435  0.41435  0.00000
E104  E   0.41435  0.50000  0.08565
E105  E   0.41435  0.50000  0.91435
E106  E   0.41435  0.58565  0.00000
E107  E   0.41435  0.91435  0.00000
E108  E   0.41435  0.91435  0.50000
E109  E   0.50000  0.08565  0.08565
E110  E   0.50000  0.08565  0.41435
E111  E   0.50000  0.08565  0.58565
E112  E   0.50000  0.08565  0.91435
E113  E   0.50000  0.41435  0.08565
E114  E   0.50000  0.41435  0.91435
E115  E   0.50000  0.58565  0.08565
E116  E   0.50000  0.58565  0.91435
E117  E   0.50000  0.91435  0.08565
E118  E   0.50000  0.91435  0.41435
E119  E   0.50000  0.91435  0.58565
E120  E   0.50000  0.91435  0.91435
E121  E   0.58565  0.00000  0.08565
E122  E   0.58565  0.00000  0.41435
E123  E   0.58565  0.00000  0.58565
E124  E   0.58565  0.00000  0.91435
E125  E   0.58565  0.08565  0.00000
E126  E   0.58565  0.08565  0.50000
E127  E   0.58565  0.41435  0.00000
E128  E   0.58565  0.50000  0.08565
E129  E   0.58565  0.50000  0.91435
E130  E   0.58565  0.58565  0.00000
E131  E   0.58565  0.91435  0.00000
E132  E   0.58565  0.91435  0.50000
E133  E   0.62745  0.14764  0.37255
E134  E   0.62745  0.14764  0.62745
E135  E   0.62745  0.37255  0.14764
E136  E   0.62745  0.37255  0.85236
E137  E   0.62745  0.62745  0.14764
E138  E   0.62745  0.62745  0.85236
E139  E   0.62745  0.85236  0.37255
E140  E   0.62745  0.85236  0.62745
E141  E   0.64764  0.12745  0.12745
E142  E   0.64764  0.12745  0.87255
E143  E   0.64764  0.87255  0.12745
E144  E   0.64764  0.87255  0.87255
E145  E   0.66925  0.27019  0.27019
E146  E   0.66925  0.27019  0.72981
E147  E   0.66925  0.72981  0.27019
E148  E   0.66925  0.72981  0.72981
E149  E   0.68943  0.18943  0.25000
E150  E   0.68943  0.18943  0.75000
E151  E   0.68943  0.25000  0.18943
E152  E   0.68943  0.25000  0.81057
E153  E   0.68943  0.75000  0.18943
E154  E   0.68943  0.75000  0.81057
E155  E   0.68943  0.81057  0.25000
E156  E   0.68943  0.81057  0.75000
E157  E   0.72981  0.27019  0.33075
E158  E   0.72981  0.27019  0.66925
E159  E   0.72981  0.33075  0.27019
E160  E   0.72981  0.33075  0.72981
E161  E   0.72981  0.66925  0.27019
E162  E   0.72981  0.66925  0.72981
E163  E   0.72981  0.72981  0.33075
E164  E   0.72981  0.72981  0.66925
E165  E   0.75000  0.18943  0.31057
E166  E   0.75000  0.18943  0.68943
E167  E   0.75000  0.31057  0.18943
E168  E   0.75000  0.31057  0.81057
E169  E   0.75000  0.68943  0.18943
E170  E   0.75000  0.68943  0.81057
E171  E   0.75000  0.81057  0.31057
E172  E   0.75000  0.81057  0.68943
E173  E   0.77019  0.16925  0.22981
E174  E   0.77019  0.16925  0.77019
E175  E   0.77019  0.22981  0.16925
E176  E   0.77019  0.22981  0.83075
E177  E   0.77019  0.77019  0.16925
E178  E   0.77019  0.77019  0.83075
E179  E   0.77019  0.83075  0.22981
E180  E   0.77019  0.83075  0.77019
E181  E   0.81057  0.25000  0.31057
E182  E   0.81057  0.25000  0.68943
E183  E   0.81057  0.31057  0.25000
E184  E   0.81057  0.31057  0.75000
E185  E   0.81057  0.68943  0.25000
E186  E   0.81057  0.68943  0.75000
E187  E   0.81057  0.75000  0.31057
E188  E   0.81057  0.75000  0.68943
E189  E   0.83075  0.22981  0.22981
E190  E   0.83075  0.22981  0.77019
E191  E   0.83075  0.77019  0.22981
E192  E   0.83075  0.77019  0.77019
E193  E   0.85236  0.37255  0.37255
E194  E   0.85236  0.37255  0.62745
E195  E   0.85236  0.62745  0.37255
E196  E   0.85236  0.62745  0.62745
E197  E   0.87255  0.12745  0.35236
E198  E   0.87255  0.12745  0.64764
E199  E   0.87255  0.35236  0.12745
E200  E   0.87255  0.35236  0.87255
E201  E   0.87255  0.64764  0.12745
E202  E   0.87255  0.64764  0.87255
E203  E   0.87255  0.87255  0.35236
E204  E   0.87255  0.87255  0.64764
E205  E   0.91435  0.00000  0.41435
E206  E   0.91435  0.00000  0.58565
E207  E   0.91435  0.08565  0.50000
E208  E   0.91435  0.41435  0.00000
E209  E   0.91435  0.41435  0.50000
E210  E   0.91435  0.50000  0.08565
E211  E   0.91435  0.50000  0.41435
E212  E   0.91435  0.50000  0.58565
E213  E   0.91435  0.50000  0.91435
E214  E   0.91435  0.58565  0.00000
E215  E   0.91435  0.58565  0.50000
E216  E   0.91435  0.91435  0.50000
loop_
