data_pbg-e_Ia-3d  hall_number: 530, V_con: 4, EC_con: 4
_audit_creation_date              2025-03-06
_audit_creation_method            'MOFbuilder_1.0'
_symmetry_space_group_name_H-M    'P1'
_symmetry_Int_Tables_number       1
_symmetry_cell_setting            triclinic
loop_
_symmetry_equiv_pos_as_xyz
  x,y,z
_cell_length_a                    77.3951
_cell_length_b                    77.3951
_cell_length_c                    77.3951
_cell_angle_alpha                 90.0
_cell_angle_beta                  90.0
_cell_angle_gamma                 90.0
loop_
_atom_site_label
_atom_site_type_symbol
_atom_site_fract_x
_atom_site_fract_y
_atom_site_fract_z
V1    V   0.00966  0.09575  0.41379
V2    V   0.00966  0.40425  0.91379
V3    V   0.00966  0.59575  0.58621
V4    V   0.00966  0.90425  0.08621
V5    V   0.08621  0.00966  0.90425
V6    V   0.08621  0.49034  0.40425
V7    V   0.08621  0.50966  0.09575
V8    V   0.08621  0.99034  0.59575
V9    V   0.09575  0.08621  0.50966
V10   V   0.09575  0.41379  0.00966
V11   V   0.09575  0.58621  0.49034
V12   V   0.09575  0.91379  0.99034
V13   V   0.15425  0.24034  0.83621
V14   V   0.15425  0.25966  0.33621
V15   V   0.15425  0.74034  0.16379
V16   V   0.15425  0.75966  0.66379
V17   V   0.16379  0.15425  0.74034
V18   V   0.16379  0.34575  0.24034
V19   V   0.16379  0.65425  0.25966
V20   V   0.16379  0.84575  0.75966
V21   V   0.24034  0.16379  0.34575
V22   V   0.24034  0.33621  0.84575
V23   V   0.24034  0.66379  0.65425
V24   V   0.24034  0.83621  0.15425
V25   V   0.25966  0.16379  0.65425
V26   V   0.25966  0.33621  0.15425
V27   V   0.25966  0.66379  0.34575
V28   V   0.25966  0.83621  0.84575
V29   V   0.33621  0.15425  0.25966
V30   V   0.33621  0.34575  0.75966
V31   V   0.33621  0.65425  0.74034
V32   V   0.33621  0.84575  0.24034
V33   V   0.34575  0.24034  0.16379
V34   V   0.34575  0.25966  0.66379
V35   V   0.34575  0.74034  0.83621
V36   V   0.34575  0.75966  0.33621
V37   V   0.40425  0.08621  0.49034
V38   V   0.40425  0.41379  0.99034
V39   V   0.40425  0.58621  0.50966
V40   V   0.40425  0.91379  0.00966
V41   V   0.41379  0.00966  0.09575
V42   V   0.41379  0.49034  0.59575
V43   V   0.41379  0.50966  0.90425
V44   V   0.41379  0.99034  0.40425
V45   V   0.49034  0.09575  0.58621
V46   V   0.49034  0.40425  0.08621
V47   V   0.49034  0.59575  0.41379
V48   V   0.49034  0.90425  0.91379
V49   V   0.50966  0.09575  0.08621
V50   V   0.50966  0.40425  0.58621
V51   V   0.50966  0.59575  0.91379
V52   V   0.50966  0.90425  0.41379
V53   V   0.58621  0.00966  0.59575
V54   V   0.58621  0.49034  0.09575
V55   V   0.58621  0.50966  0.40425
V56   V   0.58621  0.99034  0.90425
V57   V   0.59575  0.08621  0.99034
V58   V   0.59575  0.41379  0.49034
V59   V   0.59575  0.58621  0.00966
V60   V   0.59575  0.91379  0.50966
V61   V   0.65425  0.24034  0.66379
V62   V   0.65425  0.25966  0.16379
V63   V   0.65425  0.74034  0.33621
V64   V   0.65425  0.75966  0.83621
V65   V   0.66379  0.15425  0.75966
V66   V   0.66379  0.34575  0.25966
V67   V   0.66379  0.65425  0.24034
V68   V   0.66379  0.84575  0.74034
V69   V   0.74034  0.16379  0.15425
V70   V   0.74034  0.33621  0.65425
V71   V   0.74034  0.66379  0.84575
V72   V   0.74034  0.83621  0.34575
V73   V   0.75966  0.16379  0.84575
V74   V   0.75966  0.33621  0.34575
V75   V   0.75966  0.66379  0.15425
V76   V   0.75966  0.83621  0.65425
V77   V   0.83621  0.15425  0.24034
V78   V   0.83621  0.34575  0.74034
V79   V   0.83621  0.65425  0.75966
V80   V   0.83621  0.84575  0.25966
V81   V   0.84575  0.24034  0.33621
V82   V   0.84575  0.25966  0.83621
V83   V   0.84575  0.74034  0.66379
V84   V   0.84575  0.75966  0.16379
V85   V   0.90425  0.08621  0.00966
V86   V   0.90425  0.41379  0.50966
V87   V   0.90425  0.58621  0.99034
V88   V   0.90425  0.91379  0.49034
V89   V   0.91379  0.00966  0.40425
V90   V   0.91379  0.49034  0.90425
V91   V   0.91379  0.50966  0.59575
V92   V   0.91379  0.99034  0.09575
V93   V   0.99034  0.09575  0.91379
V94   V   0.99034  0.40425  0.41379
V95   V   0.99034  0.59575  0.08621
V96   V   0.99034  0.90425  0.58621
EC1    EC   0.09702  0.12500  0.84702
EC2    EC   0.09702  0.37500  0.34702
EC3    EC   0.09702  0.62500  0.15298
EC4    EC   0.09702  0.62500  0.15298
EC5    EC   0.09702  0.87500  0.65298
EC6    EC   0.12500  0.15298  0.40298
EC7    EC   0.12500  0.15298  0.40298
EC8    EC   0.12500  0.34702  0.90298
EC9    EC   0.12500  0.65298  0.59702
EC10   EC   0.12500  0.84702  0.09702
EC11   EC   0.15298  0.09702  0.62500
EC12   EC   0.15298  0.40298  0.12500
EC13   EC   0.15298  0.59702  0.37500
EC14   EC   0.15298  0.90298  0.87500
EC15   EC   0.15298  0.09702  0.62500
EC16   EC   0.15298  0.40298  0.12500
EC17   EC   0.15298  0.59702  0.37500
EC18   EC   0.15298  0.90298  0.87500
EC19   EC   0.34702  0.09702  0.37500
EC20   EC   0.34702  0.40298  0.87500
EC21   EC   0.34702  0.59702  0.62500
EC22   EC   0.34702  0.90298  0.12500
EC23   EC   0.37500  0.15298  0.59702
EC24   EC   0.37500  0.15298  0.59702
EC25   EC   0.37500  0.34702  0.09702
EC26   EC   0.37500  0.65298  0.40298
EC27   EC   0.37500  0.84702  0.90298
EC28   EC   0.40298  0.12500  0.15298
EC29   EC   0.40298  0.12500  0.15298
EC30   EC   0.40298  0.37500  0.65298
EC31   EC   0.40298  0.62500  0.84702
EC32   EC   0.40298  0.87500  0.34702
EC33   EC   0.59702  0.12500  0.65298
EC34   EC   0.59702  0.37500  0.15298
EC35   EC   0.59702  0.37500  0.15298
EC36   EC   0.59702  0.62500  0.34702
EC37   EC   0.59702  0.87500  0.84702
EC38   EC   0.62500  0.15298  0.09702
EC39   EC   0.62500  0.15298  0.09702
EC40   EC   0.62500  0.34702  0.59702
EC41   EC   0.62500  0.65298  0.90298
EC42   EC   0.62500  0.84702  0.40298
EC43   EC   0.65298  0.09702  0.87500
EC44   EC   0.65298  0.40298  0.37500
EC45   EC   0.65298  0.59702  0.12500
EC46   EC   0.65298  0.90298  0.62500
EC47   EC   0.84702  0.09702  0.12500
EC48   EC   0.84702  0.40298  0.62500
EC49   EC   0.84702  0.59702  0.87500
EC50   EC   0.84702  0.90298  0.37500
EC51   EC   0.87500  0.15298  0.90298
EC52   EC   0.87500  0.15298  0.90298
EC53   EC   0.87500  0.34702  0.40298
EC54   EC   0.87500  0.65298  0.09702
EC55   EC   0.87500  0.84702  0.59702
EC56   EC   0.90298  0.12500  0.34702
EC57   EC   0.90298  0.37500  0.84702
EC58   EC   0.90298  0.62500  0.65298
EC59   EC   0.90298  0.87500  0.15298
EC60   EC   0.90298  0.87500  0.15298
E1    E   0.03828  0.05271  0.90902
E2    E   0.03828  0.44729  0.40902
E3    E   0.03828  0.55271  0.09098
E4    E   0.03828  0.94729  0.59098
E5    E   0.04368  0.11038  0.88041
E6    E   0.04368  0.38962  0.38041
E7    E   0.04368  0.61038  0.11959
E8    E   0.04368  0.88962  0.61959
E9    E   0.05271  0.09098  0.46172
E10   E   0.05271  0.40902  0.96172
E11   E   0.05271  0.59098  0.53828
E12   E   0.05271  0.90902  0.03828
E13   E   0.06733  0.12436  0.40838
E14   E   0.06733  0.37564  0.90838
E15   E   0.06733  0.62436  0.59162
E16   E   0.06733  0.87564  0.09162
E17   E   0.09098  0.03828  0.55271
E18   E   0.09098  0.46172  0.05271
E19   E   0.09098  0.53828  0.44729
E20   E   0.09098  0.96172  0.94729
E21   E   0.09162  0.06733  0.87564
E22   E   0.09162  0.43267  0.37564
E23   E   0.09162  0.56733  0.12436
E24   E   0.09162  0.93267  0.62436
E25   E   0.11038  0.11959  0.45632
E26   E   0.11038  0.38041  0.95632
E27   E   0.11038  0.61959  0.54368
E28   E   0.11038  0.88041  0.04368
E29   E   0.11959  0.04368  0.61038
E30   E   0.11959  0.45632  0.11038
E31   E   0.11959  0.54368  0.38962
E32   E   0.11959  0.95632  0.88962
E33   E   0.12436  0.09162  0.56733
E34   E   0.12436  0.40838  0.06733
E35   E   0.12436  0.59162  0.43267
E36   E   0.12436  0.90838  0.93267
E37   E   0.12564  0.18267  0.84162
E38   E   0.12564  0.31733  0.34162
E39   E   0.12564  0.68267  0.15838
E40   E   0.12564  0.81733  0.65838
E41   E   0.13041  0.13962  0.79368
E42   E   0.13041  0.36038  0.29368
E43   E   0.13041  0.63962  0.20632
E44   E   0.13041  0.86038  0.70632
E45   E   0.13962  0.20632  0.36959
E46   E   0.13962  0.29368  0.86959
E47   E   0.13962  0.70632  0.63041
E48   E   0.13962  0.79368  0.13041
E49   E   0.15838  0.12564  0.68267
E50   E   0.15838  0.37436  0.18267
E51   E   0.15838  0.62564  0.31733
E52   E   0.15838  0.87436  0.81733
E53   E   0.15902  0.19729  0.78828
E54   E   0.15902  0.30271  0.28828
E55   E   0.15902  0.69729  0.21172
E56   E   0.15902  0.80271  0.71172
E57   E   0.18267  0.15838  0.37436
E58   E   0.18267  0.34162  0.87436
E59   E   0.18267  0.65838  0.62564
E60   E   0.18267  0.84162  0.12564
E61   E   0.19729  0.21172  0.34098
E62   E   0.19729  0.28828  0.84098
E63   E   0.19729  0.71172  0.65902
E64   E   0.19729  0.78828  0.15902
E65   E   0.20632  0.13041  0.63962
E66   E   0.20632  0.36959  0.13962
E67   E   0.20632  0.63041  0.36038
E68   E   0.20632  0.86959  0.86038
E69   E   0.21172  0.15902  0.69729
E70   E   0.21172  0.34098  0.19729
E71   E   0.21172  0.65902  0.30271
E72   E   0.21172  0.84098  0.80271
E73   E   0.28828  0.15902  0.30271
E74   E   0.28828  0.34098  0.80271
E75   E   0.28828  0.65902  0.69729
E76   E   0.28828  0.84098  0.19729
E77   E   0.29368  0.13041  0.36038
E78   E   0.29368  0.36959  0.86038
E79   E   0.29368  0.63041  0.63962
E80   E   0.29368  0.86959  0.13962
E81   E   0.30271  0.21172  0.65902
E82   E   0.30271  0.28828  0.15902
E83   E   0.30271  0.71172  0.34098
E84   E   0.30271  0.78828  0.84098
E85   E   0.31733  0.15838  0.62564
E86   E   0.31733  0.34162  0.12564
E87   E   0.31733  0.65838  0.37436
E88   E   0.31733  0.84162  0.87436
E89   E   0.34098  0.19729  0.21172
E90   E   0.34098  0.30271  0.71172
E91   E   0.34098  0.69729  0.78828
E92   E   0.34098  0.80271  0.28828
E93   E   0.34162  0.12564  0.31733
E94   E   0.34162  0.37436  0.81733
E95   E   0.34162  0.62564  0.68267
E96   E   0.34162  0.87436  0.18267
E97   E   0.36038  0.20632  0.63041
E98   E   0.36038  0.29368  0.13041
E99   E   0.36038  0.70632  0.36959
E100  E   0.36038  0.79368  0.86959
E101  E   0.36959  0.13962  0.20632
E102  E   0.36959  0.36038  0.70632
E103  E   0.36959  0.63962  0.79368
E104  E   0.36959  0.86038  0.29368
E105  E   0.37436  0.18267  0.15838
E106  E   0.37436  0.31733  0.65838
E107  E   0.37436  0.68267  0.84162
E108  E   0.37436  0.81733  0.34162
E109  E   0.37564  0.09162  0.43267
E110  E   0.37564  0.40838  0.93267
E111  E   0.37564  0.59162  0.56733
E112  E   0.37564  0.90838  0.06733
E113  E   0.38041  0.04368  0.38962
E114  E   0.38041  0.45632  0.88962
E115  E   0.38041  0.54368  0.61038
E116  E   0.38041  0.95632  0.11038
E117  E   0.38962  0.11959  0.54368
E118  E   0.38962  0.38041  0.04368
E119  E   0.38962  0.61959  0.45632
E120  E   0.38962  0.88041  0.95632
E121  E   0.40838  0.06733  0.12436
E122  E   0.40838  0.43267  0.62436
E123  E   0.40838  0.56733  0.87564
E124  E   0.40838  0.93267  0.37564
E125  E   0.40902  0.03828  0.44729
E126  E   0.40902  0.46172  0.94729
E127  E   0.40902  0.53828  0.55271
E128  E   0.40902  0.96172  0.05271
E129  E   0.43267  0.12436  0.59162
E130  E   0.43267  0.37564  0.09162
E131  E   0.43267  0.62436  0.40838
E132  E   0.43267  0.87564  0.90838
E133  E   0.44729  0.09098  0.53828
E134  E   0.44729  0.40902  0.03828
E135  E   0.44729  0.59098  0.46172
E136  E   0.44729  0.90902  0.96172
E137  E   0.45632  0.11038  0.11959
E138  E   0.45632  0.38962  0.61959
E139  E   0.45632  0.61038  0.88041
E140  E   0.45632  0.88962  0.38041
E141  E   0.46172  0.05271  0.09098
E142  E   0.46172  0.44729  0.59098
E143  E   0.46172  0.55271  0.90902
E144  E   0.46172  0.94729  0.40902
E145  E   0.53828  0.05271  0.59098
E146  E   0.53828  0.44729  0.09098
E147  E   0.53828  0.55271  0.40902
E148  E   0.53828  0.94729  0.90902
E149  E   0.54368  0.11038  0.61959
E150  E   0.54368  0.38962  0.11959
E151  E   0.54368  0.61038  0.38041
E152  E   0.54368  0.88962  0.88041
E153  E   0.55271  0.09098  0.03828
E154  E   0.55271  0.40902  0.53828
E155  E   0.55271  0.59098  0.96172
E156  E   0.55271  0.90902  0.46172
E157  E   0.56733  0.12436  0.09162
E158  E   0.56733  0.37564  0.59162
E159  E   0.56733  0.62436  0.90838
E160  E   0.56733  0.87564  0.40838
E161  E   0.59098  0.03828  0.94729
E162  E   0.59098  0.46172  0.44729
E163  E   0.59098  0.53828  0.05271
E164  E   0.59098  0.96172  0.55271
E165  E   0.59162  0.06733  0.62436
E166  E   0.59162  0.43267  0.12436
E167  E   0.59162  0.56733  0.37564
E168  E   0.59162  0.93267  0.87564
E169  E   0.61038  0.11959  0.04368
E170  E   0.61038  0.38041  0.54368
E171  E   0.61038  0.61959  0.95632
E172  E   0.61038  0.88041  0.45632
E173  E   0.61959  0.04368  0.88962
E174  E   0.61959  0.45632  0.38962
E175  E   0.61959  0.54368  0.11038
E176  E   0.61959  0.95632  0.61038
E177  E   0.62436  0.09162  0.93267
E178  E   0.62436  0.40838  0.43267
E179  E   0.62436  0.59162  0.06733
E180  E   0.62436  0.90838  0.56733
E181  E   0.62564  0.18267  0.65838
E182  E   0.62564  0.31733  0.15838
E183  E   0.62564  0.68267  0.34162
E184  E   0.62564  0.81733  0.84162
E185  E   0.63041  0.13962  0.70632
E186  E   0.63041  0.36038  0.20632
E187  E   0.63041  0.63962  0.29368
E188  E   0.63041  0.86038  0.79368
E189  E   0.63962  0.20632  0.13041
E190  E   0.63962  0.29368  0.63041
E191  E   0.63962  0.70632  0.86959
E192  E   0.63962  0.79368  0.36959
E193  E   0.65838  0.12564  0.81733
E194  E   0.65838  0.37436  0.31733
E195  E   0.65838  0.62564  0.18267
E196  E   0.65838  0.87436  0.68267
E197  E   0.65902  0.19729  0.71172
E198  E   0.65902  0.30271  0.21172
E199  E   0.65902  0.69729  0.28828
E200  E   0.65902  0.80271  0.78828
E201  E   0.68267  0.15838  0.12564
E202  E   0.68267  0.34162  0.62564
E203  E   0.68267  0.65838  0.87436
E204  E   0.68267  0.84162  0.37436
E205  E   0.69729  0.21172  0.15902
E206  E   0.69729  0.28828  0.65902
E207  E   0.69729  0.71172  0.84098
E208  E   0.69729  0.78828  0.34098
E209  E   0.70632  0.13041  0.86038
E210  E   0.70632  0.36959  0.36038
E211  E   0.70632  0.63041  0.13962
E212  E   0.70632  0.86959  0.63962
E213  E   0.71172  0.15902  0.80271
E214  E   0.71172  0.34098  0.30271
E215  E   0.71172  0.65902  0.19729
E216  E   0.71172  0.84098  0.69729
E217  E   0.78828  0.15902  0.19729
E218  E   0.78828  0.34098  0.69729
E219  E   0.78828  0.65902  0.80271
E220  E   0.78828  0.84098  0.30271
E221  E   0.79368  0.13041  0.13962
E222  E   0.79368  0.36959  0.63962
E223  E   0.79368  0.63041  0.86038
E224  E   0.79368  0.86959  0.36038
E225  E   0.80271  0.21172  0.84098
E226  E   0.80271  0.28828  0.34098
E227  E   0.80271  0.71172  0.15902
E228  E   0.80271  0.78828  0.65902
E229  E   0.81733  0.15838  0.87436
E230  E   0.81733  0.34162  0.37436
E231  E   0.81733  0.65838  0.12564
E232  E   0.81733  0.84162  0.62564
E233  E   0.84098  0.19729  0.28828
E234  E   0.84098  0.30271  0.78828
E235  E   0.84098  0.69729  0.71172
E236  E   0.84098  0.80271  0.21172
E237  E   0.84162  0.12564  0.18267
E238  E   0.84162  0.37436  0.68267
E239  E   0.84162  0.62564  0.81733
E240  E   0.84162  0.87436  0.31733
E241  E   0.86038  0.20632  0.86959
E242  E   0.86038  0.29368  0.36959
E243  E   0.86038  0.70632  0.13041
E244  E   0.86038  0.79368  0.63041
E245  E   0.86959  0.13962  0.29368
E246  E   0.86959  0.36038  0.79368
E247  E   0.86959  0.63962  0.70632
E248  E   0.86959  0.86038  0.20632
E249  E   0.87436  0.18267  0.34162
E250  E   0.87436  0.31733  0.84162
E251  E   0.87436  0.68267  0.65838
E252  E   0.87436  0.81733  0.15838
E253  E   0.87564  0.09162  0.06733
E254  E   0.87564  0.40838  0.56733
E255  E   0.87564  0.59162  0.93267
E256  E   0.87564  0.90838  0.43267
E257  E   0.88041  0.04368  0.11038
E258  E   0.88041  0.45632  0.61038
E259  E   0.88041  0.54368  0.88962
E260  E   0.88041  0.95632  0.38962
E261  E   0.88962  0.11959  0.95632
E262  E   0.88962  0.38041  0.45632
E263  E   0.88962  0.61959  0.04368
E264  E   0.88962  0.88041  0.54368
E265  E   0.90838  0.06733  0.37564
E266  E   0.90838  0.43267  0.87564
E267  E   0.90838  0.56733  0.62436
E268  E   0.90838  0.93267  0.12436
E269  E   0.90902  0.03828  0.05271
E270  E   0.90902  0.46172  0.55271
E271  E   0.90902  0.53828  0.94729
E272  E   0.90902  0.96172  0.44729
E273  E   0.93267  0.12436  0.90838
E274  E   0.93267  0.37564  0.40838
E275  E   0.93267  0.62436  0.09162
E276  E   0.93267  0.87564  0.59162
E277  E   0.94729  0.09098  0.96172
E278  E   0.94729  0.40902  0.46172
E279  E   0.94729  0.59098  0.03828
E280  E   0.94729  0.90902  0.53828
E281  E   0.95632  0.11038  0.38041
E282  E   0.95632  0.38962  0.88041
E283  E   0.95632  0.61038  0.61959
E284  E   0.95632  0.88962  0.11959
E285  E   0.96172  0.05271  0.40902
E286  E   0.96172  0.44729  0.90902
E287  E   0.96172  0.55271  0.59098
E288  E   0.96172  0.94729  0.09098
loop_
