data_pbg_Ia-3d  hall_number: 530, V_con: 3
_audit_creation_date              2025-03-06
_audit_creation_method            'MOFbuilder_1.0'
_symmetry_space_group_name_H-M    'P1'
_symmetry_Int_Tables_number       1
_symmetry_cell_setting            triclinic
loop_
_symmetry_equiv_pos_as_xyz
  x,y,z
_cell_length_a                    67.0587
_cell_length_b                    67.0587
_cell_length_c                    67.0587
_cell_angle_alpha                 90.0
_cell_angle_beta                  90.0
_cell_angle_gamma                 90.0
loop_
_atom_site_label
_atom_site_type_symbol
_atom_site_fract_x
_atom_site_fract_y
_atom_site_fract_z
V1    V   0.05923  0.07671  0.88957
V2    V   0.05923  0.42329  0.38957
V3    V   0.05923  0.57671  0.11043
V4    V   0.05923  0.92329  0.61043
V5    V   0.07671  0.11043  0.44077
V6    V   0.07671  0.38957  0.94077
V7    V   0.07671  0.61043  0.55923
V8    V   0.07671  0.88957  0.05923
V9    V   0.11043  0.05923  0.57671
V10   V   0.11043  0.44077  0.07671
V11   V   0.11043  0.55923  0.42329
V12   V   0.11043  0.94077  0.92329
V13   V   0.13957  0.17329  0.80923
V14   V   0.13957  0.32671  0.30923
V15   V   0.13957  0.67329  0.19077
V16   V   0.13957  0.82671  0.69077
V17   V   0.17329  0.19077  0.36043
V18   V   0.17329  0.30923  0.86043
V19   V   0.17329  0.69077  0.63957
V20   V   0.17329  0.80923  0.13957
V21   V   0.19077  0.13957  0.67329
V22   V   0.19077  0.36043  0.17329
V23   V   0.19077  0.63957  0.32671
V24   V   0.19077  0.86043  0.82671
V25   V   0.30923  0.13957  0.32671
V26   V   0.30923  0.36043  0.82671
V27   V   0.30923  0.63957  0.67329
V28   V   0.30923  0.86043  0.17329
V29   V   0.32671  0.19077  0.63957
V30   V   0.32671  0.30923  0.13957
V31   V   0.32671  0.69077  0.36043
V32   V   0.32671  0.80923  0.86043
V33   V   0.36043  0.17329  0.19077
V34   V   0.36043  0.32671  0.69077
V35   V   0.36043  0.67329  0.80923
V36   V   0.36043  0.82671  0.30923
V37   V   0.38957  0.05923  0.42329
V38   V   0.38957  0.44077  0.92329
V39   V   0.38957  0.55923  0.57671
V40   V   0.38957  0.94077  0.07671
V41   V   0.42329  0.11043  0.55923
V42   V   0.42329  0.38957  0.05923
V43   V   0.42329  0.61043  0.44077
V44   V   0.42329  0.88957  0.94077
V45   V   0.44077  0.07671  0.11043
V46   V   0.44077  0.42329  0.61043
V47   V   0.44077  0.57671  0.88957
V48   V   0.44077  0.92329  0.38957
V49   V   0.55923  0.07671  0.61043
V50   V   0.55923  0.42329  0.11043
V51   V   0.55923  0.57671  0.38957
V52   V   0.55923  0.92329  0.88957
V53   V   0.57671  0.11043  0.05923
V54   V   0.57671  0.38957  0.55923
V55   V   0.57671  0.61043  0.94077
V56   V   0.57671  0.88957  0.44077
V57   V   0.61043  0.05923  0.92329
V58   V   0.61043  0.44077  0.42329
V59   V   0.61043  0.55923  0.07671
V60   V   0.61043  0.94077  0.57671
V61   V   0.63957  0.17329  0.69077
V62   V   0.63957  0.32671  0.19077
V63   V   0.63957  0.67329  0.30923
V64   V   0.63957  0.82671  0.80923
V65   V   0.67329  0.19077  0.13957
V66   V   0.67329  0.30923  0.63957
V67   V   0.67329  0.69077  0.86043
V68   V   0.67329  0.80923  0.36043
V69   V   0.69077  0.13957  0.82671
V70   V   0.69077  0.36043  0.32671
V71   V   0.69077  0.63957  0.17329
V72   V   0.69077  0.86043  0.67329
V73   V   0.80923  0.13957  0.17329
V74   V   0.80923  0.36043  0.67329
V75   V   0.80923  0.63957  0.82671
V76   V   0.80923  0.86043  0.32671
V77   V   0.82671  0.19077  0.86043
V78   V   0.82671  0.30923  0.36043
V79   V   0.82671  0.69077  0.13957
V80   V   0.82671  0.80923  0.63957
V81   V   0.86043  0.17329  0.30923
V82   V   0.86043  0.32671  0.80923
V83   V   0.86043  0.67329  0.69077
V84   V   0.86043  0.82671  0.19077
V85   V   0.88957  0.05923  0.07671
V86   V   0.88957  0.44077  0.57671
V87   V   0.88957  0.55923  0.92329
V88   V   0.88957  0.94077  0.42329
V89   V   0.92329  0.11043  0.94077
V90   V   0.92329  0.38957  0.44077
V91   V   0.92329  0.61043  0.05923
V92   V   0.92329  0.88957  0.55923
V93   V   0.94077  0.07671  0.38957
V94   V   0.94077  0.42329  0.88957
V95   V   0.94077  0.57671  0.61043
V96   V   0.94077  0.92329  0.11043
E1    E   0.00874  0.09357  0.41517
E2    E   0.00874  0.40643  0.91517
E3    E   0.00874  0.59357  0.58483
E4    E   0.00874  0.90643  0.08483
E5    E   0.08483  0.00874  0.90643
E6    E   0.08483  0.49126  0.40643
E7    E   0.08483  0.50874  0.09357
E8    E   0.08483  0.99126  0.59357
E9    E   0.09357  0.08483  0.50874
E10   E   0.09357  0.41517  0.00874
E11   E   0.09357  0.58483  0.49126
E12   E   0.09357  0.91517  0.99126
E13   E   0.09940  0.12500  0.84940
E14   E   0.09940  0.37500  0.34940
E15   E   0.09940  0.62500  0.15060
E16   E   0.09940  0.62500  0.15060
E17   E   0.09940  0.87500  0.65060
E18   E   0.12500  0.15060  0.40060
E19   E   0.12500  0.15060  0.40060
E20   E   0.12500  0.34940  0.90060
E21   E   0.12500  0.65060  0.59940
E22   E   0.12500  0.84940  0.09940
E23   E   0.15060  0.09940  0.62500
E24   E   0.15060  0.40060  0.12500
E25   E   0.15060  0.59940  0.37500
E26   E   0.15060  0.90060  0.87500
E27   E   0.15060  0.09940  0.62500
E28   E   0.15060  0.40060  0.12500
E29   E   0.15060  0.59940  0.37500
E30   E   0.15060  0.90060  0.87500
E31   E   0.15643  0.24126  0.83483
E32   E   0.15643  0.25874  0.33483
E33   E   0.15643  0.74126  0.16517
E34   E   0.15643  0.75874  0.66517
E35   E   0.16517  0.15643  0.74126
E36   E   0.16517  0.34357  0.24126
E37   E   0.16517  0.65643  0.25874
E38   E   0.16517  0.84357  0.75874
E39   E   0.24126  0.16517  0.34357
E40   E   0.24126  0.33483  0.84357
E41   E   0.24126  0.66517  0.65643
E42   E   0.24126  0.83483  0.15643
E43   E   0.25874  0.16517  0.65643
E44   E   0.25874  0.33483  0.15643
E45   E   0.25874  0.66517  0.34357
E46   E   0.25874  0.83483  0.84357
E47   E   0.33483  0.15643  0.25874
E48   E   0.33483  0.34357  0.75874
E49   E   0.33483  0.65643  0.74126
E50   E   0.33483  0.84357  0.24126
E51   E   0.34357  0.24126  0.16517
E52   E   0.34357  0.25874  0.66517
E53   E   0.34357  0.74126  0.83483
E54   E   0.34357  0.75874  0.33483
E55   E   0.34940  0.09940  0.37500
E56   E   0.34940  0.40060  0.87500
E57   E   0.34940  0.59940  0.62500
E58   E   0.34940  0.90060  0.12500
E59   E   0.37500  0.15060  0.59940
E60   E   0.37500  0.15060  0.59940
E61   E   0.37500  0.34940  0.09940
E62   E   0.37500  0.65060  0.40060
E63   E   0.37500  0.84940  0.90060
E64   E   0.40060  0.12500  0.15060
E65   E   0.40060  0.12500  0.15060
E66   E   0.40060  0.37500  0.65060
E67   E   0.40060  0.62500  0.84940
E68   E   0.40060  0.87500  0.34940
E69   E   0.40643  0.08483  0.49126
E70   E   0.40643  0.41517  0.99126
E71   E   0.40643  0.58483  0.50874
E72   E   0.40643  0.91517  0.00874
E73   E   0.41517  0.00874  0.09357
E74   E   0.41517  0.49126  0.59357
E75   E   0.41517  0.50874  0.90643
E76   E   0.41517  0.99126  0.40643
E77   E   0.49126  0.09357  0.58483
E78   E   0.49126  0.40643  0.08483
E79   E   0.49126  0.59357  0.41517
E80   E   0.49126  0.90643  0.91517
E81   E   0.50874  0.09357  0.08483
E82   E   0.50874  0.40643  0.58483
E83   E   0.50874  0.59357  0.91517
E84   E   0.50874  0.90643  0.41517
E85   E   0.58483  0.00874  0.59357
E86   E   0.58483  0.49126  0.09357
E87   E   0.58483  0.50874  0.40643
E88   E   0.58483  0.99126  0.90643
E89   E   0.59357  0.08483  0.99126
E90   E   0.59357  0.41517  0.49126
E91   E   0.59357  0.58483  0.00874
E92   E   0.59357  0.91517  0.50874
E93   E   0.59940  0.12500  0.65060
E94   E   0.59940  0.37500  0.15060
E95   E   0.59940  0.37500  0.15060
E96   E   0.59940  0.62500  0.34940
E97   E   0.59940  0.87500  0.84940
E98   E   0.62500  0.15060  0.09940
E99   E   0.62500  0.15060  0.09940
E100  E   0.62500  0.34940  0.59940
E101  E   0.62500  0.65060  0.90060
E102  E   0.62500  0.84940  0.40060
E103  E   0.65060  0.09940  0.87500
E104  E   0.65060  0.40060  0.37500
E105  E   0.65060  0.59940  0.12500
E106  E   0.65060  0.90060  0.62500
E107  E   0.65643  0.24126  0.66517
E108  E   0.65643  0.25874  0.16517
E109  E   0.65643  0.74126  0.33483
E110  E   0.65643  0.75874  0.83483
E111  E   0.66517  0.15643  0.75874
E112  E   0.66517  0.34357  0.25874
E113  E   0.66517  0.65643  0.24126
E114  E   0.66517  0.84357  0.74126
E115  E   0.74126  0.16517  0.15643
E116  E   0.74126  0.33483  0.65643
E117  E   0.74126  0.66517  0.84357
E118  E   0.74126  0.83483  0.34357
E119  E   0.75874  0.16517  0.84357
E120  E   0.75874  0.33483  0.34357
E121  E   0.75874  0.66517  0.15643
E122  E   0.75874  0.83483  0.65643
E123  E   0.83483  0.15643  0.24126
E124  E   0.83483  0.34357  0.74126
E125  E   0.83483  0.65643  0.75874
E126  E   0.83483  0.84357  0.25874
E127  E   0.84357  0.24126  0.33483
E128  E   0.84357  0.25874  0.83483
E129  E   0.84357  0.74126  0.66517
E130  E   0.84357  0.75874  0.16517
E131  E   0.84940  0.09940  0.12500
E132  E   0.84940  0.40060  0.62500
E133  E   0.84940  0.59940  0.87500
E134  E   0.84940  0.90060  0.37500
E135  E   0.87500  0.15060  0.90060
E136  E   0.87500  0.15060  0.90060
E137  E   0.87500  0.34940  0.40060
E138  E   0.87500  0.65060  0.09940
E139  E   0.87500  0.84940  0.59940
E140  E   0.90060  0.12500  0.34940
E141  E   0.90060  0.37500  0.84940
E142  E   0.90060  0.62500  0.65060
E143  E   0.90060  0.87500  0.15060
E144  E   0.90060  0.87500  0.15060
E145  E   0.90643  0.08483  0.00874
E146  E   0.90643  0.41517  0.50874
E147  E   0.90643  0.58483  0.99126
E148  E   0.90643  0.91517  0.49126
E149  E   0.91517  0.00874  0.40643
E150  E   0.91517  0.49126  0.90643
E151  E   0.91517  0.50874  0.59357
E152  E   0.91517  0.99126  0.09357
E153  E   0.99126  0.09357  0.91517
E154  E   0.99126  0.40643  0.41517
E155  E   0.99126  0.59357  0.08483
E156  E   0.99126  0.90643  0.58483
loop_
