data_pbp-e_Im-3m  hall_number: 529, V_con: 4, EC_con: 4
_audit_creation_date              2025-03-06
_audit_creation_method            'MOFbuilder_1.0'
_symmetry_space_group_name_H-M    'P1'
_symmetry_Int_Tables_number       1
_symmetry_cell_setting            triclinic
loop_
_symmetry_equiv_pos_as_xyz
  x,y,z
_cell_length_a                    62.9253
_cell_length_b                    62.9253
_cell_length_c                    62.9253
_cell_angle_alpha                 90.0
_cell_angle_beta                  90.0
_cell_angle_gamma                 90.0
loop_
_atom_site_label
_atom_site_type_symbol
_atom_site_fract_x
_atom_site_fract_y
_atom_site_fract_z
V1    V   0.00000  0.30613  0.30613
V2    V   0.00000  0.30613  0.69387
V3    V   0.00000  0.69387  0.30613
V4    V   0.00000  0.69387  0.69387
V5    V   0.19387  0.19387  0.50000
V6    V   0.19387  0.50000  0.19387
V7    V   0.19387  0.50000  0.80613
V8    V   0.19387  0.80613  0.50000
V9    V   0.30613  0.00000  0.30613
V10   V   0.30613  0.00000  0.69387
V11   V   0.30613  0.30613  0.00000
V12   V   0.30613  0.69387  0.00000
V13   V   0.50000  0.19387  0.19387
V14   V   0.50000  0.19387  0.80613
V15   V   0.50000  0.80613  0.19387
V16   V   0.50000  0.80613  0.80613
V17   V   0.69387  0.00000  0.30613
V18   V   0.69387  0.00000  0.69387
V19   V   0.69387  0.30613  0.00000
V20   V   0.69387  0.69387  0.00000
V21   V   0.80613  0.19387  0.50000
V22   V   0.80613  0.50000  0.19387
V23   V   0.80613  0.50000  0.80613
V24   V   0.80613  0.80613  0.50000
EC1    EC   0.13763  0.25000  0.36237
EC2    EC   0.13763  0.25000  0.63763
EC3    EC   0.13763  0.36237  0.25000
EC4    EC   0.13763  0.36237  0.75000
EC5    EC   0.13763  0.63763  0.25000
EC6    EC   0.13763  0.63763  0.75000
EC7    EC   0.13763  0.75000  0.36237
EC8    EC   0.13763  0.75000  0.63763
EC9    EC   0.13763  0.25000  0.36237
EC10   EC   0.13763  0.25000  0.63763
EC11   EC   0.13763  0.36237  0.25000
EC12   EC   0.13763  0.36237  0.75000
EC13   EC   0.13763  0.63763  0.25000
EC14   EC   0.13763  0.63763  0.75000
EC15   EC   0.13763  0.75000  0.36237
EC16   EC   0.13763  0.75000  0.63763
EC17   EC   0.25000  0.13763  0.36237
EC18   EC   0.25000  0.13763  0.63763
EC19   EC   0.25000  0.13763  0.36237
EC20   EC   0.25000  0.13763  0.63763
EC21   EC   0.25000  0.36237  0.13763
EC22   EC   0.25000  0.36237  0.86237
EC23   EC   0.25000  0.36237  0.13763
EC24   EC   0.25000  0.36237  0.86237
EC25   EC   0.25000  0.63763  0.13763
EC26   EC   0.25000  0.63763  0.86237
EC27   EC   0.25000  0.63763  0.13763
EC28   EC   0.25000  0.63763  0.86237
EC29   EC   0.25000  0.86237  0.36237
EC30   EC   0.25000  0.86237  0.63763
EC31   EC   0.25000  0.86237  0.36237
EC32   EC   0.25000  0.86237  0.63763
EC33   EC   0.36237  0.13763  0.25000
EC34   EC   0.36237  0.13763  0.75000
EC35   EC   0.36237  0.25000  0.13763
EC36   EC   0.36237  0.25000  0.86237
EC37   EC   0.36237  0.75000  0.13763
EC38   EC   0.36237  0.75000  0.86237
EC39   EC   0.36237  0.86237  0.25000
EC40   EC   0.36237  0.86237  0.75000
EC41   EC   0.36237  0.13763  0.25000
EC42   EC   0.36237  0.13763  0.75000
EC43   EC   0.36237  0.25000  0.13763
EC44   EC   0.36237  0.25000  0.86237
EC45   EC   0.36237  0.75000  0.13763
EC46   EC   0.36237  0.75000  0.86237
EC47   EC   0.36237  0.86237  0.25000
EC48   EC   0.36237  0.86237  0.75000
EC49   EC   0.63763  0.13763  0.25000
EC50   EC   0.63763  0.13763  0.75000
EC51   EC   0.63763  0.25000  0.13763
EC52   EC   0.63763  0.25000  0.86237
EC53   EC   0.63763  0.75000  0.13763
EC54   EC   0.63763  0.75000  0.86237
EC55   EC   0.63763  0.86237  0.25000
EC56   EC   0.63763  0.86237  0.75000
EC57   EC   0.63763  0.13763  0.25000
EC58   EC   0.63763  0.13763  0.75000
EC59   EC   0.63763  0.25000  0.13763
EC60   EC   0.63763  0.25000  0.86237
EC61   EC   0.63763  0.75000  0.13763
EC62   EC   0.63763  0.75000  0.86237
EC63   EC   0.63763  0.86237  0.25000
EC64   EC   0.63763  0.86237  0.75000
EC65   EC   0.75000  0.13763  0.36237
EC66   EC   0.75000  0.13763  0.63763
EC67   EC   0.75000  0.13763  0.36237
EC68   EC   0.75000  0.13763  0.63763
EC69   EC   0.75000  0.36237  0.13763
EC70   EC   0.75000  0.36237  0.86237
EC71   EC   0.75000  0.36237  0.13763
EC72   EC   0.75000  0.36237  0.86237
EC73   EC   0.75000  0.63763  0.13763
EC74   EC   0.75000  0.63763  0.86237
EC75   EC   0.75000  0.63763  0.13763
EC76   EC   0.75000  0.63763  0.86237
EC77   EC   0.75000  0.86237  0.36237
EC78   EC   0.75000  0.86237  0.63763
EC79   EC   0.75000  0.86237  0.36237
EC80   EC   0.75000  0.86237  0.63763
EC81   EC   0.86237  0.25000  0.36237
EC82   EC   0.86237  0.25000  0.63763
EC83   EC   0.86237  0.36237  0.25000
EC84   EC   0.86237  0.36237  0.75000
EC85   EC   0.86237  0.63763  0.25000
EC86   EC   0.86237  0.63763  0.75000
EC87   EC   0.86237  0.75000  0.36237
EC88   EC   0.86237  0.75000  0.63763
EC89   EC   0.86237  0.25000  0.36237
EC90   EC   0.86237  0.25000  0.63763
EC91   EC   0.86237  0.36237  0.25000
EC92   EC   0.86237  0.36237  0.75000
EC93   EC   0.86237  0.63763  0.25000
EC94   EC   0.86237  0.63763  0.75000
EC95   EC   0.86237  0.75000  0.36237
EC96   EC   0.86237  0.75000  0.63763
E1    E   0.06881  0.27806  0.33425
E2    E   0.06881  0.27806  0.66575
E3    E   0.06881  0.33425  0.27806
E4    E   0.06881  0.33425  0.72194
E5    E   0.06881  0.66575  0.27806
E6    E   0.06881  0.66575  0.72194
E7    E   0.06881  0.72194  0.33425
E8    E   0.06881  0.72194  0.66575
E9    E   0.13763  0.30619  0.30619
E10   E   0.13763  0.30619  0.69381
E11   E   0.13763  0.69381  0.30619
E12   E   0.13763  0.69381  0.69381
E13   E   0.16575  0.22194  0.43119
E14   E   0.16575  0.22194  0.56881
E15   E   0.16575  0.43119  0.22194
E16   E   0.16575  0.43119  0.77806
E17   E   0.16575  0.56881  0.22194
E18   E   0.16575  0.56881  0.77806
E19   E   0.16575  0.77806  0.43119
E20   E   0.16575  0.77806  0.56881
E21   E   0.19381  0.19381  0.36237
E22   E   0.19381  0.19381  0.63763
E23   E   0.19381  0.36237  0.19381
E24   E   0.19381  0.36237  0.80619
E25   E   0.19381  0.63763  0.19381
E26   E   0.19381  0.63763  0.80619
E27   E   0.19381  0.80619  0.36237
E28   E   0.19381  0.80619  0.63763
E29   E   0.22194  0.16575  0.43119
E30   E   0.22194  0.16575  0.56881
E31   E   0.22194  0.43119  0.16575
E32   E   0.22194  0.43119  0.83425
E33   E   0.22194  0.56881  0.16575
E34   E   0.22194  0.56881  0.83425
E35   E   0.22194  0.83425  0.43119
E36   E   0.22194  0.83425  0.56881
E37   E   0.27806  0.06881  0.33425
E38   E   0.27806  0.06881  0.66575
E39   E   0.27806  0.33425  0.06881
E40   E   0.27806  0.33425  0.93119
E41   E   0.27806  0.66575  0.06881
E42   E   0.27806  0.66575  0.93119
E43   E   0.27806  0.93119  0.33425
E44   E   0.27806  0.93119  0.66575
E45   E   0.30619  0.13763  0.30619
E46   E   0.30619  0.13763  0.69381
E47   E   0.30619  0.30619  0.13763
E48   E   0.30619  0.30619  0.86237
E49   E   0.30619  0.69381  0.13763
E50   E   0.30619  0.69381  0.86237
E51   E   0.30619  0.86237  0.30619
E52   E   0.30619  0.86237  0.69381
E53   E   0.33425  0.06881  0.27806
E54   E   0.33425  0.06881  0.72194
E55   E   0.33425  0.27806  0.06881
E56   E   0.33425  0.27806  0.93119
E57   E   0.33425  0.72194  0.06881
E58   E   0.33425  0.72194  0.93119
E59   E   0.33425  0.93119  0.27806
E60   E   0.33425  0.93119  0.72194
E61   E   0.36237  0.19381  0.19381
E62   E   0.36237  0.19381  0.80619
E63   E   0.36237  0.80619  0.19381
E64   E   0.36237  0.80619  0.80619
E65   E   0.43119  0.16575  0.22194
E66   E   0.43119  0.16575  0.77806
E67   E   0.43119  0.22194  0.16575
E68   E   0.43119  0.22194  0.83425
E69   E   0.43119  0.77806  0.16575
E70   E   0.43119  0.77806  0.83425
E71   E   0.43119  0.83425  0.22194
E72   E   0.43119  0.83425  0.77806
E73   E   0.56881  0.16575  0.22194
E74   E   0.56881  0.16575  0.77806
E75   E   0.56881  0.22194  0.16575
E76   E   0.56881  0.22194  0.83425
E77   E   0.56881  0.77806  0.16575
E78   E   0.56881  0.77806  0.83425
E79   E   0.56881  0.83425  0.22194
E80   E   0.56881  0.83425  0.77806
E81   E   0.63763  0.19381  0.19381
E82   E   0.63763  0.19381  0.80619
E83   E   0.63763  0.80619  0.19381
E84   E   0.63763  0.80619  0.80619
E85   E   0.66575  0.06881  0.27806
E86   E   0.66575  0.06881  0.72194
E87   E   0.66575  0.27806  0.06881
E88   E   0.66575  0.27806  0.93119
E89   E   0.66575  0.72194  0.06881
E90   E   0.66575  0.72194  0.93119
E91   E   0.66575  0.93119  0.27806
E92   E   0.66575  0.93119  0.72194
E93   E   0.69381  0.13763  0.30619
E94   E   0.69381  0.13763  0.69381
E95   E   0.69381  0.30619  0.13763
E96   E   0.69381  0.30619  0.86237
E97   E   0.69381  0.69381  0.13763
E98   E   0.69381  0.69381  0.86237
E99   E   0.69381  0.86237  0.30619
E100  E   0.69381  0.86237  0.69381
E101  E   0.72194  0.06881  0.33425
E102  E   0.72194  0.06881  0.66575
E103  E   0.72194  0.33425  0.06881
E104  E   0.72194  0.33425  0.93119
E105  E   0.72194  0.66575  0.06881
E106  E   0.72194  0.66575  0.93119
E107  E   0.72194  0.93119  0.33425
E108  E   0.72194  0.93119  0.66575
E109  E   0.77806  0.16575  0.43119
E110  E   0.77806  0.16575  0.56881
E111  E   0.77806  0.43119  0.16575
E112  E   0.77806  0.43119  0.83425
E113  E   0.77806  0.56881  0.16575
E114  E   0.77806  0.56881  0.83425
E115  E   0.77806  0.83425  0.43119
E116  E   0.77806  0.83425  0.56881
E117  E   0.80619  0.19381  0.36237
E118  E   0.80619  0.19381  0.63763
E119  E   0.80619  0.36237  0.19381
E120  E   0.80619  0.36237  0.80619
E121  E   0.80619  0.63763  0.19381
E122  E   0.80619  0.63763  0.80619
E123  E   0.80619  0.80619  0.36237
E124  E   0.80619  0.80619  0.63763
E125  E   0.83425  0.22194  0.43119
E126  E   0.83425  0.22194  0.56881
E127  E   0.83425  0.43119  0.22194
E128  E   0.83425  0.43119  0.77806
E129  E   0.83425  0.56881  0.22194
E130  E   0.83425  0.56881  0.77806
E131  E   0.83425  0.77806  0.43119
E132  E   0.83425  0.77806  0.56881
E133  E   0.86237  0.30619  0.30619
E134  E   0.86237  0.30619  0.69381
E135  E   0.86237  0.69381  0.30619
E136  E   0.86237  0.69381  0.69381
E137  E   0.93119  0.27806  0.33425
E138  E   0.93119  0.27806  0.66575
E139  E   0.93119  0.33425  0.27806
E140  E   0.93119  0.33425  0.72194
E141  E   0.93119  0.66575  0.27806
E142  E   0.93119  0.66575  0.72194
E143  E   0.93119  0.72194  0.33425
E144  E   0.93119  0.72194  0.66575
loop_
