data_pbz-e_Pn-3m:2  hall_number: 522, V_con: 4, EC_con: 4
_audit_creation_date              2025-03-06
_audit_creation_method            'MOFbuilder_1.0'
_symmetry_space_group_name_H-M    'P1'
_symmetry_Int_Tables_number       1
_symmetry_cell_setting            triclinic
loop_
_symmetry_equiv_pos_as_xyz
  x,y,z
_cell_length_a                    48.9898
_cell_length_b                    48.9898
_cell_length_c                    48.9898
_cell_angle_alpha                 90.0
_cell_angle_beta                  90.0
_cell_angle_gamma                 90.0
loop_
_atom_site_label
_atom_site_type_symbol
_atom_site_fract_x
_atom_site_fract_y
_atom_site_fract_z
V1    V   0.00000  0.25000  0.75000
V2    V   0.00000  0.75000  0.25000
V3    V   0.25000  0.00000  0.75000
V4    V   0.25000  0.50000  0.75000
V5    V   0.25000  0.75000  0.00000
V6    V   0.25000  0.75000  0.50000
V7    V   0.50000  0.25000  0.75000
V8    V   0.50000  0.75000  0.25000
V9    V   0.75000  0.00000  0.25000
V10   V   0.75000  0.25000  0.00000
V11   V   0.75000  0.25000  0.50000
V12   V   0.75000  0.50000  0.25000
EC1    EC   0.08344  0.08344  0.66655
EC2    EC   0.08344  0.41656  0.83345
EC3    EC   0.08344  0.66655  0.08344
EC4    EC   0.08344  0.83345  0.41656
EC5    EC   0.16655  0.58344  0.91656
EC6    EC   0.16655  0.91656  0.58344
EC7    EC   0.33345  0.58344  0.58344
EC8    EC   0.33345  0.91656  0.91656
EC9    EC   0.41656  0.08344  0.83345
EC10   EC   0.41656  0.41656  0.66655
EC11   EC   0.41656  0.66655  0.41656
EC12   EC   0.41656  0.83345  0.08344
EC13   EC   0.58344  0.16655  0.91656
EC14   EC   0.58344  0.33345  0.58344
EC15   EC   0.58344  0.58344  0.33345
EC16   EC   0.58344  0.91656  0.16655
EC17   EC   0.66655  0.08344  0.08344
EC18   EC   0.66655  0.41656  0.41656
EC19   EC   0.83345  0.08344  0.41656
EC20   EC   0.83345  0.41656  0.08344
EC21   EC   0.91656  0.16655  0.58344
EC22   EC   0.91656  0.33345  0.91656
EC23   EC   0.91656  0.58344  0.16655
EC24   EC   0.91656  0.91656  0.33345
E1    E   0.00000  0.12500  0.62500
E2    E   0.00000  0.37500  0.87500
E3    E   0.00000  0.62500  0.12500
E4    E   0.00000  0.87500  0.37500
E5    E   0.04172  0.16672  0.70828
E6    E   0.04172  0.33328  0.79172
E7    E   0.04172  0.70828  0.16672
E8    E   0.04172  0.79172  0.33328
E9    E   0.12500  0.00000  0.62500
E10   E   0.12500  0.50000  0.87500
E11   E   0.12500  0.62500  0.00000
E12   E   0.12500  0.87500  0.50000
E13   E   0.16672  0.04172  0.70828
E14   E   0.16672  0.45828  0.79172
E15   E   0.16672  0.70828  0.04172
E16   E   0.16672  0.79172  0.45828
E17   E   0.20828  0.54172  0.83328
E18   E   0.20828  0.66672  0.95828
E19   E   0.20828  0.83328  0.54172
E20   E   0.20828  0.95828  0.66672
E21   E   0.29172  0.54172  0.66672
E22   E   0.29172  0.66672  0.54172
E23   E   0.29172  0.83328  0.95828
E24   E   0.29172  0.95828  0.83328
E25   E   0.33328  0.04172  0.79172
E26   E   0.33328  0.45828  0.70828
E27   E   0.33328  0.70828  0.45828
E28   E   0.33328  0.79172  0.04172
E29   E   0.37500  0.00000  0.87500
E30   E   0.37500  0.50000  0.62500
E31   E   0.37500  0.62500  0.50000
E32   E   0.37500  0.87500  0.00000
E33   E   0.45828  0.16672  0.79172
E34   E   0.45828  0.33328  0.70828
E35   E   0.45828  0.70828  0.33328
E36   E   0.45828  0.79172  0.16672
E37   E   0.50000  0.12500  0.87500
E38   E   0.50000  0.37500  0.62500
E39   E   0.50000  0.62500  0.37500
E40   E   0.50000  0.87500  0.12500
E41   E   0.54172  0.20828  0.83328
E42   E   0.54172  0.29172  0.66672
E43   E   0.54172  0.66672  0.29172
E44   E   0.54172  0.83328  0.20828
E45   E   0.62500  0.00000  0.12500
E46   E   0.62500  0.12500  0.00000
E47   E   0.62500  0.37500  0.50000
E48   E   0.62500  0.50000  0.37500
E49   E   0.66672  0.20828  0.95828
E50   E   0.66672  0.29172  0.54172
E51   E   0.66672  0.54172  0.29172
E52   E   0.66672  0.95828  0.20828
E53   E   0.70828  0.04172  0.16672
E54   E   0.70828  0.16672  0.04172
E55   E   0.70828  0.33328  0.45828
E56   E   0.70828  0.45828  0.33328
E57   E   0.79172  0.04172  0.33328
E58   E   0.79172  0.16672  0.45828
E59   E   0.79172  0.33328  0.04172
E60   E   0.79172  0.45828  0.16672
E61   E   0.83328  0.20828  0.54172
E62   E   0.83328  0.29172  0.95828
E63   E   0.83328  0.54172  0.20828
E64   E   0.83328  0.95828  0.29172
E65   E   0.87500  0.00000  0.37500
E66   E   0.87500  0.12500  0.50000
E67   E   0.87500  0.37500  0.00000
E68   E   0.87500  0.50000  0.12500
E69   E   0.95828  0.20828  0.66672
E70   E   0.95828  0.29172  0.83328
E71   E   0.95828  0.66672  0.20828
E72   E   0.95828  0.83328  0.29172
loop_
