data_pbz_Pn-3m:2  hall_number: 522, V_con: 3
_audit_creation_date              2025-03-06
_audit_creation_method            'MOFbuilder_1.0'
_symmetry_space_group_name_H-M    'P1'
_symmetry_Int_Tables_number       1
_symmetry_cell_setting            triclinic
loop_
_symmetry_equiv_pos_as_xyz
  x,y,z
_cell_length_a                    42.4264
_cell_length_b                    42.4264
_cell_length_c                    42.4264
_cell_angle_alpha                 90.0
_cell_angle_beta                  90.0
_cell_angle_gamma                 90.0
loop_
_atom_site_label
_atom_site_type_symbol
_atom_site_fract_x
_atom_site_fract_y
_atom_site_fract_z
V1    V   0.00000  0.16667  0.66667
V2    V   0.00000  0.16667  0.66667
V3    V   0.00000  0.33333  0.83333
V4    V   0.00000  0.66667  0.16667
V5    V   0.00000  0.66667  0.16667
V6    V   0.00000  0.83333  0.33333
V7    V   0.16667  0.00000  0.66667
V8    V   0.16667  0.50000  0.83333
V9    V   0.16667  0.66667  0.00000
V10   V   0.16667  0.83333  0.50000
V11   V   0.16667  0.00000  0.66667
V12   V   0.16667  0.50000  0.83333
V13   V   0.16667  0.66667  0.00000
V14   V   0.16667  0.83333  0.50000
V15   V   0.33333  0.00000  0.83333
V16   V   0.33333  0.50000  0.66667
V17   V   0.33333  0.66667  0.50000
V18   V   0.33333  0.83333  0.00000
V19   V   0.50000  0.16667  0.83333
V20   V   0.50000  0.16667  0.83333
V21   V   0.50000  0.33333  0.66667
V22   V   0.50000  0.66667  0.33333
V23   V   0.50000  0.83333  0.16667
V24   V   0.50000  0.83333  0.16667
V25   V   0.66667  0.00000  0.16667
V26   V   0.66667  0.00000  0.16667
V27   V   0.66667  0.16667  0.00000
V28   V   0.66667  0.16667  0.00000
V29   V   0.66667  0.33333  0.50000
V30   V   0.66667  0.50000  0.33333
V31   V   0.83333  0.00000  0.33333
V32   V   0.83333  0.16667  0.50000
V33   V   0.83333  0.16667  0.50000
V34   V   0.83333  0.33333  0.00000
V35   V   0.83333  0.50000  0.16667
V36   V   0.83333  0.50000  0.16667
E1    E   0.00000  0.25000  0.75000
E2    E   0.00000  0.75000  0.25000
E3    E   0.08333  0.08333  0.66667
E4    E   0.08333  0.41667  0.83333
E5    E   0.08333  0.66667  0.08333
E6    E   0.08333  0.83333  0.41667
E7    E   0.16667  0.58333  0.91667
E8    E   0.16667  0.91667  0.58333
E9    E   0.25000  0.00000  0.75000
E10   E   0.25000  0.50000  0.75000
E11   E   0.25000  0.75000  0.00000
E12   E   0.25000  0.75000  0.50000
E13   E   0.33333  0.58333  0.58333
E14   E   0.33333  0.91667  0.91667
E15   E   0.41667  0.08333  0.83333
E16   E   0.41667  0.41667  0.66667
E17   E   0.41667  0.66667  0.41667
E18   E   0.41667  0.83333  0.08333
E19   E   0.50000  0.25000  0.75000
E20   E   0.50000  0.75000  0.25000
E21   E   0.58333  0.16667  0.91667
E22   E   0.58333  0.33333  0.58333
E23   E   0.58333  0.58333  0.33333
E24   E   0.58333  0.91667  0.16667
E25   E   0.66667  0.08333  0.08333
E26   E   0.66667  0.41667  0.41667
E27   E   0.75000  0.00000  0.25000
E28   E   0.75000  0.25000  0.00000
E29   E   0.75000  0.25000  0.50000
E30   E   0.75000  0.50000  0.25000
E31   E   0.83333  0.08333  0.41667
E32   E   0.83333  0.41667  0.08333
E33   E   0.91667  0.16667  0.58333
E34   E   0.91667  0.33333  0.91667
E35   E   0.91667  0.58333  0.16667
E36   E   0.91667  0.91667  0.33333
loop_
