data_pcu-m_Fm-3c  hall_number: 524, V_con: 6
_audit_creation_date              2025-03-06
_audit_creation_method            'MOFbuilder_1.0'
_symmetry_space_group_name_H-M    'P1'
_symmetry_Int_Tables_number       1
_symmetry_cell_setting            triclinic
loop_
_symmetry_equiv_pos_as_xyz
  x,y,z
_cell_length_a                    65.7047
_cell_length_b                    65.7047
_cell_length_c                    65.7047
_cell_angle_alpha                 90.0
_cell_angle_beta                  90.0
_cell_angle_gamma                 90.0
loop_
_atom_site_label
_atom_site_type_symbol
_atom_site_fract_x
_atom_site_fract_y
_atom_site_fract_z
V1    V   0.07610  0.15545  0.19860
V2    V   0.07610  0.15545  0.80140
V3    V   0.07610  0.19860  0.34455
V4    V   0.07610  0.19860  0.65545
V5    V   0.07610  0.30140  0.15545
V6    V   0.07610  0.30140  0.84455
V7    V   0.07610  0.34455  0.30140
V8    V   0.07610  0.34455  0.69860
V9    V   0.07610  0.65545  0.30140
V10   V   0.07610  0.65545  0.69860
V11   V   0.07610  0.69860  0.15545
V12   V   0.07610  0.69860  0.84455
V13   V   0.07610  0.80140  0.34455
V14   V   0.07610  0.80140  0.65545
V15   V   0.07610  0.84455  0.19860
V16   V   0.07610  0.84455  0.80140
V17   V   0.15545  0.07610  0.30140
V18   V   0.15545  0.07610  0.69860
V19   V   0.15545  0.19860  0.07610
V20   V   0.15545  0.19860  0.92390
V21   V   0.15545  0.30140  0.42390
V22   V   0.15545  0.30140  0.57610
V23   V   0.15545  0.42390  0.19860
V24   V   0.15545  0.42390  0.80140
V25   V   0.15545  0.57610  0.19860
V26   V   0.15545  0.57610  0.80140
V27   V   0.15545  0.69860  0.42390
V28   V   0.15545  0.69860  0.57610
V29   V   0.15545  0.80140  0.07610
V30   V   0.15545  0.80140  0.92390
V31   V   0.15545  0.92390  0.30140
V32   V   0.15545  0.92390  0.69860
V33   V   0.19860  0.07610  0.15545
V34   V   0.19860  0.07610  0.84455
V35   V   0.19860  0.15545  0.42390
V36   V   0.19860  0.15545  0.57610
V37   V   0.19860  0.34455  0.07610
V38   V   0.19860  0.34455  0.92390
V39   V   0.19860  0.42390  0.34455
V40   V   0.19860  0.42390  0.65545
V41   V   0.19860  0.57610  0.34455
V42   V   0.19860  0.57610  0.65545
V43   V   0.19860  0.65545  0.07610
V44   V   0.19860  0.65545  0.92390
V45   V   0.19860  0.84455  0.42390
V46   V   0.19860  0.84455  0.57610
V47   V   0.19860  0.92390  0.15545
V48   V   0.19860  0.92390  0.84455
V49   V   0.30140  0.07610  0.34455
V50   V   0.30140  0.07610  0.65545
V51   V   0.30140  0.15545  0.07610
V52   V   0.30140  0.15545  0.92390
V53   V   0.30140  0.34455  0.42390
V54   V   0.30140  0.34455  0.57610
V55   V   0.30140  0.42390  0.15545
V56   V   0.30140  0.42390  0.84455
V57   V   0.30140  0.57610  0.15545
V58   V   0.30140  0.57610  0.84455
V59   V   0.30140  0.65545  0.42390
V60   V   0.30140  0.65545  0.57610
V61   V   0.30140  0.84455  0.07610
V62   V   0.30140  0.84455  0.92390
V63   V   0.30140  0.92390  0.34455
V64   V   0.30140  0.92390  0.65545
V65   V   0.34455  0.07610  0.19860
V66   V   0.34455  0.07610  0.80140
V67   V   0.34455  0.19860  0.42390
V68   V   0.34455  0.19860  0.57610
V69   V   0.34455  0.30140  0.07610
V70   V   0.34455  0.30140  0.92390
V71   V   0.34455  0.42390  0.30140
V72   V   0.34455  0.42390  0.69860
V73   V   0.34455  0.57610  0.30140
V74   V   0.34455  0.57610  0.69860
V75   V   0.34455  0.69860  0.07610
V76   V   0.34455  0.69860  0.92390
V77   V   0.34455  0.80140  0.42390
V78   V   0.34455  0.80140  0.57610
V79   V   0.34455  0.92390  0.19860
V80   V   0.34455  0.92390  0.80140
V81   V   0.42390  0.15545  0.30140
V82   V   0.42390  0.15545  0.69860
V83   V   0.42390  0.19860  0.15545
V84   V   0.42390  0.19860  0.84455
V85   V   0.42390  0.30140  0.34455
V86   V   0.42390  0.30140  0.65545
V87   V   0.42390  0.34455  0.19860
V88   V   0.42390  0.34455  0.80140
V89   V   0.42390  0.65545  0.19860
V90   V   0.42390  0.65545  0.80140
V91   V   0.42390  0.69860  0.34455
V92   V   0.42390  0.69860  0.65545
V93   V   0.42390  0.80140  0.15545
V94   V   0.42390  0.80140  0.84455
V95   V   0.42390  0.84455  0.30140
V96   V   0.42390  0.84455  0.69860
V97   V   0.57610  0.15545  0.30140
V98   V   0.57610  0.15545  0.69860
V99   V   0.57610  0.19860  0.15545
V100  V   0.57610  0.19860  0.84455
V101  V   0.57610  0.30140  0.34455
V102  V   0.57610  0.30140  0.65545
V103  V   0.57610  0.34455  0.19860
V104  V   0.57610  0.34455  0.80140
V105  V   0.57610  0.65545  0.19860
V106  V   0.57610  0.65545  0.80140
V107  V   0.57610  0.69860  0.34455
V108  V   0.57610  0.69860  0.65545
V109  V   0.57610  0.80140  0.15545
V110  V   0.57610  0.80140  0.84455
V111  V   0.57610  0.84455  0.30140
V112  V   0.57610  0.84455  0.69860
V113  V   0.65545  0.07610  0.19860
V114  V   0.65545  0.07610  0.80140
V115  V   0.65545  0.19860  0.42390
V116  V   0.65545  0.19860  0.57610
V117  V   0.65545  0.30140  0.07610
V118  V   0.65545  0.30140  0.92390
V119  V   0.65545  0.42390  0.30140
V120  V   0.65545  0.42390  0.69860
V121  V   0.65545  0.57610  0.30140
V122  V   0.65545  0.57610  0.69860
V123  V   0.65545  0.69860  0.07610
V124  V   0.65545  0.69860  0.92390
V125  V   0.65545  0.80140  0.42390
V126  V   0.65545  0.80140  0.57610
V127  V   0.65545  0.92390  0.19860
V128  V   0.65545  0.92390  0.80140
V129  V   0.69860  0.07610  0.34455
V130  V   0.69860  0.07610  0.65545
V131  V   0.69860  0.15545  0.07610
V132  V   0.69860  0.15545  0.92390
V133  V   0.69860  0.34455  0.42390
V134  V   0.69860  0.34455  0.57610
V135  V   0.69860  0.42390  0.15545
V136  V   0.69860  0.42390  0.84455
V137  V   0.69860  0.57610  0.15545
V138  V   0.69860  0.57610  0.84455
V139  V   0.69860  0.65545  0.42390
V140  V   0.69860  0.65545  0.57610
V141  V   0.69860  0.84455  0.07610
V142  V   0.69860  0.84455  0.92390
V143  V   0.69860  0.92390  0.34455
V144  V   0.69860  0.92390  0.65545
V145  V   0.80140  0.07610  0.15545
V146  V   0.80140  0.07610  0.84455
V147  V   0.80140  0.15545  0.42390
V148  V   0.80140  0.15545  0.57610
V149  V   0.80140  0.34455  0.07610
V150  V   0.80140  0.34455  0.92390
V151  V   0.80140  0.42390  0.34455
V152  V   0.80140  0.42390  0.65545
V153  V   0.80140  0.57610  0.34455
V154  V   0.80140  0.57610  0.65545
V155  V   0.80140  0.65545  0.07610
V156  V   0.80140  0.65545  0.92390
V157  V   0.80140  0.84455  0.42390
V158  V   0.80140  0.84455  0.57610
V159  V   0.80140  0.92390  0.15545
V160  V   0.80140  0.92390  0.84455
V161  V   0.84455  0.07610  0.30140
V162  V   0.84455  0.07610  0.69860
V163  V   0.84455  0.19860  0.07610
V164  V   0.84455  0.19860  0.92390
V165  V   0.84455  0.30140  0.42390
V166  V   0.84455  0.30140  0.57610
V167  V   0.84455  0.42390  0.19860
V168  V   0.84455  0.42390  0.80140
V169  V   0.84455  0.57610  0.19860
V170  V   0.84455  0.57610  0.80140
V171  V   0.84455  0.69860  0.42390
V172  V   0.84455  0.69860  0.57610
V173  V   0.84455  0.80140  0.07610
V174  V   0.84455  0.80140  0.92390
V175  V   0.84455  0.92390  0.30140
V176  V   0.84455  0.92390  0.69860
V177  V   0.92390  0.15545  0.19860
V178  V   0.92390  0.15545  0.80140
V179  V   0.92390  0.19860  0.34455
V180  V   0.92390  0.19860  0.65545
V181  V   0.92390  0.30140  0.15545
V182  V   0.92390  0.30140  0.84455
V183  V   0.92390  0.34455  0.30140
V184  V   0.92390  0.34455  0.69860
V185  V   0.92390  0.65545  0.30140
V186  V   0.92390  0.65545  0.69860
V187  V   0.92390  0.69860  0.15545
V188  V   0.92390  0.69860  0.84455
V189  V   0.92390  0.80140  0.34455
V190  V   0.92390  0.80140  0.65545
V191  V   0.92390  0.84455  0.19860
V192  V   0.92390  0.84455  0.80140
E1    E   0.00000  0.15545  0.19860
E2    E   0.00000  0.15545  0.80140
E3    E   0.00000  0.19860  0.34455
E4    E   0.00000  0.19860  0.65545
E5    E   0.00000  0.30140  0.15545
E6    E   0.00000  0.30140  0.84455
E7    E   0.00000  0.34455  0.30140
E8    E   0.00000  0.34455  0.69860
E9    E   0.00000  0.65545  0.30140
E10   E   0.00000  0.65545  0.69860
E11   E   0.00000  0.69860  0.15545
E12   E   0.00000  0.69860  0.84455
E13   E   0.00000  0.80140  0.34455
E14   E   0.00000  0.80140  0.65545
E15   E   0.00000  0.84455  0.19860
E16   E   0.00000  0.84455  0.80140
E17   E   0.07610  0.17702  0.27157
E18   E   0.07610  0.17702  0.72843
E19   E   0.07610  0.22843  0.17702
E20   E   0.07610  0.22843  0.82298
E21   E   0.07610  0.27157  0.32298
E22   E   0.07610  0.27157  0.67702
E23   E   0.07610  0.32298  0.22843
E24   E   0.07610  0.32298  0.77157
E25   E   0.07610  0.67702  0.22843
E26   E   0.07610  0.67702  0.77157
E27   E   0.07610  0.72843  0.32298
E28   E   0.07610  0.72843  0.67702
E29   E   0.07610  0.77157  0.17702
E30   E   0.07610  0.77157  0.82298
E31   E   0.07610  0.82298  0.27157
E32   E   0.07610  0.82298  0.72843
E33   E   0.11578  0.11578  0.25000
E34   E   0.11578  0.11578  0.75000
E35   E   0.11578  0.13735  0.32298
E36   E   0.11578  0.13735  0.67702
E37   E   0.11578  0.17702  0.13735
E38   E   0.11578  0.17702  0.86265
E39   E   0.11578  0.25000  0.11578
E40   E   0.11578  0.25000  0.38422
E41   E   0.11578  0.25000  0.61578
E42   E   0.11578  0.25000  0.88422
E43   E   0.11578  0.32298  0.36265
E44   E   0.11578  0.32298  0.63735
E45   E   0.11578  0.36265  0.17702
E46   E   0.11578  0.36265  0.82298
E47   E   0.11578  0.38422  0.25000
E48   E   0.11578  0.38422  0.75000
E49   E   0.11578  0.61578  0.25000
E50   E   0.11578  0.61578  0.75000
E51   E   0.11578  0.63735  0.17702
E52   E   0.11578  0.63735  0.82298
E53   E   0.11578  0.67702  0.36265
E54   E   0.11578  0.67702  0.63735
E55   E   0.11578  0.75000  0.11578
E56   E   0.11578  0.75000  0.38422
E57   E   0.11578  0.75000  0.61578
E58   E   0.11578  0.75000  0.88422
E59   E   0.11578  0.82298  0.13735
E60   E   0.11578  0.82298  0.86265
E61   E   0.11578  0.86265  0.32298
E62   E   0.11578  0.86265  0.67702
E63   E   0.11578  0.88422  0.25000
E64   E   0.11578  0.88422  0.75000
E65   E   0.13735  0.11578  0.17702
E66   E   0.13735  0.11578  0.82298
E67   E   0.13735  0.17702  0.38422
E68   E   0.13735  0.17702  0.61578
E69   E   0.13735  0.32298  0.11578
E70   E   0.13735  0.32298  0.88422
E71   E   0.13735  0.38422  0.32298
E72   E   0.13735  0.38422  0.67702
E73   E   0.13735  0.61578  0.32298
E74   E   0.13735  0.61578  0.67702
E75   E   0.13735  0.67702  0.11578
E76   E   0.13735  0.67702  0.88422
E77   E   0.13735  0.82298  0.38422
E78   E   0.13735  0.82298  0.61578
E79   E   0.13735  0.88422  0.17702
E80   E   0.13735  0.88422  0.82298
E81   E   0.15545  0.00000  0.30140
E82   E   0.15545  0.00000  0.69860
E83   E   0.15545  0.19860  0.00000
E84   E   0.15545  0.30140  0.50000
E85   E   0.15545  0.50000  0.19860
E86   E   0.15545  0.50000  0.80140
E87   E   0.15545  0.69860  0.50000
E88   E   0.15545  0.80140  0.00000
E89   E   0.17702  0.07610  0.22843
E90   E   0.17702  0.07610  0.77157
E91   E   0.17702  0.11578  0.36265
E92   E   0.17702  0.11578  0.63735
E93   E   0.17702  0.13735  0.11578
E94   E   0.17702  0.13735  0.88422
E95   E   0.17702  0.22843  0.42390
E96   E   0.17702  0.22843  0.57610
E97   E   0.17702  0.27157  0.07610
E98   E   0.17702  0.27157  0.92390
E99   E   0.17702  0.36265  0.38422
E100  E   0.17702  0.36265  0.61578
E101  E   0.17702  0.38422  0.13735
E102  E   0.17702  0.38422  0.86265
E103  E   0.17702  0.42390  0.27157
E104  E   0.17702  0.42390  0.72843
E105  E   0.17702  0.57610  0.27157
E106  E   0.17702  0.57610  0.72843
E107  E   0.17702  0.61578  0.13735
E108  E   0.17702  0.61578  0.86265
E109  E   0.17702  0.63735  0.38422
E110  E   0.17702  0.63735  0.61578
E111  E   0.17702  0.72843  0.07610
E112  E   0.17702  0.72843  0.92390
E113  E   0.17702  0.77157  0.42390
E114  E   0.17702  0.77157  0.57610
E115  E   0.17702  0.86265  0.11578
E116  E   0.17702  0.86265  0.88422
E117  E   0.17702  0.88422  0.36265
E118  E   0.17702  0.88422  0.63735
E119  E   0.17702  0.92390  0.22843
E120  E   0.17702  0.92390  0.77157
E121  E   0.19860  0.00000  0.15545
E122  E   0.19860  0.00000  0.84455
E123  E   0.19860  0.15545  0.50000
E124  E   0.19860  0.34455  0.00000
E125  E   0.19860  0.50000  0.34455
E126  E   0.19860  0.50000  0.65545
E127  E   0.19860  0.65545  0.00000
E128  E   0.19860  0.84455  0.50000
E129  E   0.22843  0.07610  0.32298
E130  E   0.22843  0.07610  0.67702
E131  E   0.22843  0.17702  0.07610
E132  E   0.22843  0.17702  0.92390
E133  E   0.22843  0.32298  0.42390
E134  E   0.22843  0.32298  0.57610
E135  E   0.22843  0.42390  0.17702
E136  E   0.22843  0.42390  0.82298
E137  E   0.22843  0.57610  0.17702
E138  E   0.22843  0.57610  0.82298
E139  E   0.22843  0.67702  0.42390
E140  E   0.22843  0.67702  0.57610
E141  E   0.22843  0.82298  0.07610
E142  E   0.22843  0.82298  0.92390
E143  E   0.22843  0.92390  0.32298
E144  E   0.22843  0.92390  0.67702
E145  E   0.25000  0.11578  0.11578
E146  E   0.25000  0.11578  0.38422
E147  E   0.25000  0.11578  0.61578
E148  E   0.25000  0.11578  0.88422
E149  E   0.25000  0.38422  0.11578
E150  E   0.25000  0.38422  0.38422
E151  E   0.25000  0.38422  0.61578
E152  E   0.25000  0.38422  0.88422
E153  E   0.25000  0.61578  0.11578
E154  E   0.25000  0.61578  0.38422
E155  E   0.25000  0.61578  0.61578
E156  E   0.25000  0.61578  0.88422
E157  E   0.25000  0.88422  0.11578
E158  E   0.25000  0.88422  0.38422
E159  E   0.25000  0.88422  0.61578
E160  E   0.25000  0.88422  0.88422
E161  E   0.27157  0.07610  0.17702
E162  E   0.27157  0.07610  0.82298
E163  E   0.27157  0.17702  0.42390
E164  E   0.27157  0.17702  0.57610
E165  E   0.27157  0.32298  0.07610
E166  E   0.27157  0.32298  0.92390
E167  E   0.27157  0.42390  0.32298
E168  E   0.27157  0.42390  0.67702
E169  E   0.27157  0.57610  0.32298
E170  E   0.27157  0.57610  0.67702
E171  E   0.27157  0.67702  0.07610
E172  E   0.27157  0.67702  0.92390
E173  E   0.27157  0.82298  0.42390
E174  E   0.27157  0.82298  0.57610
E175  E   0.27157  0.92390  0.17702
E176  E   0.27157  0.92390  0.82298
E177  E   0.30140  0.00000  0.34455
E178  E   0.30140  0.00000  0.65545
E179  E   0.30140  0.15545  0.00000
E180  E   0.30140  0.34455  0.50000
E181  E   0.30140  0.50000  0.15545
E182  E   0.30140  0.50000  0.84455
E183  E   0.30140  0.65545  0.50000
E184  E   0.30140  0.84455  0.00000
E185  E   0.32298  0.07610  0.27157
E186  E   0.32298  0.07610  0.72843
E187  E   0.32298  0.11578  0.13735
E188  E   0.32298  0.11578  0.86265
E189  E   0.32298  0.13735  0.38422
E190  E   0.32298  0.13735  0.61578
E191  E   0.32298  0.22843  0.07610
E192  E   0.32298  0.22843  0.92390
E193  E   0.32298  0.27157  0.42390
E194  E   0.32298  0.27157  0.57610
E195  E   0.32298  0.36265  0.11578
E196  E   0.32298  0.36265  0.88422
E197  E   0.32298  0.38422  0.36265
E198  E   0.32298  0.38422  0.63735
E199  E   0.32298  0.42390  0.22843
E200  E   0.32298  0.42390  0.77157
E201  E   0.32298  0.57610  0.22843
E202  E   0.32298  0.57610  0.77157
E203  E   0.32298  0.61578  0.36265
E204  E   0.32298  0.61578  0.63735
E205  E   0.32298  0.63735  0.11578
E206  E   0.32298  0.63735  0.88422
E207  E   0.32298  0.72843  0.42390
E208  E   0.32298  0.72843  0.57610
E209  E   0.32298  0.77157  0.07610
E210  E   0.32298  0.77157  0.92390
E211  E   0.32298  0.86265  0.38422
E212  E   0.32298  0.86265  0.61578
E213  E   0.32298  0.88422  0.13735
E214  E   0.32298  0.88422  0.86265
E215  E   0.32298  0.92390  0.27157
E216  E   0.32298  0.92390  0.72843
E217  E   0.34455  0.00000  0.19860
E218  E   0.34455  0.00000  0.80140
E219  E   0.34455  0.19860  0.50000
E220  E   0.34455  0.30140  0.00000
E221  E   0.34455  0.50000  0.30140
E222  E   0.34455  0.50000  0.69860
E223  E   0.34455  0.69860  0.00000
E224  E   0.34455  0.80140  0.50000
E225  E   0.36265  0.11578  0.32298
E226  E   0.36265  0.11578  0.67702
E227  E   0.36265  0.17702  0.11578
E228  E   0.36265  0.17702  0.88422
E229  E   0.36265  0.32298  0.38422
E230  E   0.36265  0.32298  0.61578
E231  E   0.36265  0.38422  0.17702
E232  E   0.36265  0.38422  0.82298
E233  E   0.36265  0.61578  0.17702
E234  E   0.36265  0.61578  0.82298
E235  E   0.36265  0.67702  0.38422
E236  E   0.36265  0.67702  0.61578
E237  E   0.36265  0.82298  0.11578
E238  E   0.36265  0.82298  0.88422
E239  E   0.36265  0.88422  0.32298
E240  E   0.36265  0.88422  0.67702
E241  E   0.38422  0.11578  0.25000
E242  E   0.38422  0.11578  0.75000
E243  E   0.38422  0.13735  0.17702
E244  E   0.38422  0.13735  0.82298
E245  E   0.38422  0.17702  0.36265
E246  E   0.38422  0.17702  0.63735
E247  E   0.38422  0.25000  0.11578
E248  E   0.38422  0.25000  0.38422
E249  E   0.38422  0.25000  0.61578
E250  E   0.38422  0.25000  0.88422
E251  E   0.38422  0.32298  0.13735
E252  E   0.38422  0.32298  0.86265
E253  E   0.38422  0.36265  0.32298
E254  E   0.38422  0.36265  0.67702
E255  E   0.38422  0.38422  0.25000
E256  E   0.38422  0.38422  0.75000
E257  E   0.38422  0.61578  0.25000
E258  E   0.38422  0.61578  0.75000
E259  E   0.38422  0.63735  0.32298
E260  E   0.38422  0.63735  0.67702
E261  E   0.38422  0.67702  0.13735
E262  E   0.38422  0.67702  0.86265
E263  E   0.38422  0.75000  0.11578
E264  E   0.38422  0.75000  0.38422
E265  E   0.38422  0.75000  0.61578
E266  E   0.38422  0.75000  0.88422
E267  E   0.38422  0.82298  0.36265
E268  E   0.38422  0.82298  0.63735
E269  E   0.38422  0.86265  0.17702
E270  E   0.38422  0.86265  0.82298
E271  E   0.38422  0.88422  0.25000
E272  E   0.38422  0.88422  0.75000
E273  E   0.42390  0.17702  0.22843
E274  E   0.42390  0.17702  0.77157
E275  E   0.42390  0.22843  0.32298
E276  E   0.42390  0.22843  0.67702
E277  E   0.42390  0.27157  0.17702
E278  E   0.42390  0.27157  0.82298
E279  E   0.42390  0.32298  0.27157
E280  E   0.42390  0.32298  0.72843
E281  E   0.42390  0.67702  0.27157
E282  E   0.42390  0.67702  0.72843
E283  E   0.42390  0.72843  0.17702
E284  E   0.42390  0.72843  0.82298
E285  E   0.42390  0.77157  0.32298
E286  E   0.42390  0.77157  0.67702
E287  E   0.42390  0.82298  0.22843
E288  E   0.42390  0.82298  0.77157
E289  E   0.50000  0.15545  0.30140
E290  E   0.50000  0.15545  0.69860
E291  E   0.50000  0.19860  0.15545
E292  E   0.50000  0.19860  0.84455
E293  E   0.50000  0.30140  0.34455
E294  E   0.50000  0.30140  0.65545
E295  E   0.50000  0.34455  0.19860
E296  E   0.50000  0.34455  0.80140
E297  E   0.50000  0.65545  0.19860
E298  E   0.50000  0.65545  0.80140
E299  E   0.50000  0.69860  0.34455
E300  E   0.50000  0.69860  0.65545
E301  E   0.50000  0.80140  0.15545
E302  E   0.50000  0.80140  0.84455
E303  E   0.50000  0.84455  0.30140
E304  E   0.50000  0.84455  0.69860
E305  E   0.57610  0.17702  0.22843
E306  E   0.57610  0.17702  0.77157
E307  E   0.57610  0.22843  0.32298
E308  E   0.57610  0.22843  0.67702
E309  E   0.57610  0.27157  0.17702
E310  E   0.57610  0.27157  0.82298
E311  E   0.57610  0.32298  0.27157
E312  E   0.57610  0.32298  0.72843
E313  E   0.57610  0.67702  0.27157
E314  E   0.57610  0.67702  0.72843
E315  E   0.57610  0.72843  0.17702
E316  E   0.57610  0.72843  0.82298
E317  E   0.57610  0.77157  0.32298
E318  E   0.57610  0.77157  0.67702
E319  E   0.57610  0.82298  0.22843
E320  E   0.57610  0.82298  0.77157
E321  E   0.61578  0.11578  0.25000
E322  E   0.61578  0.11578  0.75000
E323  E   0.61578  0.13735  0.17702
E324  E   0.61578  0.13735  0.82298
E325  E   0.61578  0.17702  0.36265
E326  E   0.61578  0.17702  0.63735
E327  E   0.61578  0.25000  0.11578
E328  E   0.61578  0.25000  0.38422
E329  E   0.61578  0.25000  0.61578
E330  E   0.61578  0.25000  0.88422
E331  E   0.61578  0.32298  0.13735
E332  E   0.61578  0.32298  0.86265
E333  E   0.61578  0.36265  0.32298
E334  E   0.61578  0.36265  0.67702
E335  E   0.61578  0.38422  0.25000
E336  E   0.61578  0.38422  0.75000
E337  E   0.61578  0.61578  0.25000
E338  E   0.61578  0.61578  0.75000
E339  E   0.61578  0.63735  0.32298
E340  E   0.61578  0.63735  0.67702
E341  E   0.61578  0.67702  0.13735
E342  E   0.61578  0.67702  0.86265
E343  E   0.61578  0.75000  0.11578
E344  E   0.61578  0.75000  0.38422
E345  E   0.61578  0.75000  0.61578
E346  E   0.61578  0.75000  0.88422
E347  E   0.61578  0.82298  0.36265
E348  E   0.61578  0.82298  0.63735
E349  E   0.61578  0.86265  0.17702
E350  E   0.61578  0.86265  0.82298
E351  E   0.61578  0.88422  0.25000
E352  E   0.61578  0.88422  0.75000
E353  E   0.63735  0.11578  0.32298
E354  E   0.63735  0.11578  0.67702
E355  E   0.63735  0.17702  0.11578
E356  E   0.63735  0.17702  0.88422
E357  E   0.63735  0.32298  0.38422
E358  E   0.63735  0.32298  0.61578
E359  E   0.63735  0.38422  0.17702
E360  E   0.63735  0.38422  0.82298
E361  E   0.63735  0.61578  0.17702
E362  E   0.63735  0.61578  0.82298
E363  E   0.63735  0.67702  0.38422
E364  E   0.63735  0.67702  0.61578
E365  E   0.63735  0.82298  0.11578
E366  E   0.63735  0.82298  0.88422
E367  E   0.63735  0.88422  0.32298
E368  E   0.63735  0.88422  0.67702
E369  E   0.65545  0.00000  0.19860
E370  E   0.65545  0.00000  0.80140
E371  E   0.65545  0.19860  0.50000
E372  E   0.65545  0.30140  0.00000
E373  E   0.65545  0.50000  0.30140
E374  E   0.65545  0.50000  0.69860
E375  E   0.65545  0.69860  0.00000
E376  E   0.65545  0.80140  0.50000
E377  E   0.67702  0.07610  0.27157
E378  E   0.67702  0.07610  0.72843
E379  E   0.67702  0.11578  0.13735
E380  E   0.67702  0.11578  0.86265
E381  E   0.67702  0.13735  0.38422
E382  E   0.67702  0.13735  0.61578
E383  E   0.67702  0.22843  0.07610
E384  E   0.67702  0.22843  0.92390
E385  E   0.67702  0.27157  0.42390
E386  E   0.67702  0.27157  0.57610
E387  E   0.67702  0.36265  0.11578
E388  E   0.67702  0.36265  0.88422
E389  E   0.67702  0.38422  0.36265
E390  E   0.67702  0.38422  0.63735
E391  E   0.67702  0.42390  0.22843
E392  E   0.67702  0.42390  0.77157
E393  E   0.67702  0.57610  0.22843
E394  E   0.67702  0.57610  0.77157
E395  E   0.67702  0.61578  0.36265
E396  E   0.67702  0.61578  0.63735
E397  E   0.67702  0.63735  0.11578
E398  E   0.67702  0.63735  0.88422
E399  E   0.67702  0.72843  0.42390
E400  E   0.67702  0.72843  0.57610
E401  E   0.67702  0.77157  0.07610
E402  E   0.67702  0.77157  0.92390
E403  E   0.67702  0.86265  0.38422
E404  E   0.67702  0.86265  0.61578
E405  E   0.67702  0.88422  0.13735
E406  E   0.67702  0.88422  0.86265
E407  E   0.67702  0.92390  0.27157
E408  E   0.67702  0.92390  0.72843
E409  E   0.69860  0.00000  0.34455
E410  E   0.69860  0.00000  0.65545
E411  E   0.69860  0.15545  0.00000
E412  E   0.69860  0.34455  0.50000
E413  E   0.69860  0.50000  0.15545
E414  E   0.69860  0.50000  0.84455
E415  E   0.69860  0.65545  0.50000
E416  E   0.69860  0.84455  0.00000
E417  E   0.72843  0.07610  0.17702
E418  E   0.72843  0.07610  0.82298
E419  E   0.72843  0.17702  0.42390
E420  E   0.72843  0.17702  0.57610
E421  E   0.72843  0.32298  0.07610
E422  E   0.72843  0.32298  0.92390
E423  E   0.72843  0.42390  0.32298
E424  E   0.72843  0.42390  0.67702
E425  E   0.72843  0.57610  0.32298
E426  E   0.72843  0.57610  0.67702
E427  E   0.72843  0.67702  0.07610
E428  E   0.72843  0.67702  0.92390
E429  E   0.72843  0.82298  0.42390
E430  E   0.72843  0.82298  0.57610
E431  E   0.72843  0.92390  0.17702
E432  E   0.72843  0.92390  0.82298
E433  E   0.75000  0.11578  0.11578
E434  E   0.75000  0.11578  0.38422
E435  E   0.75000  0.11578  0.61578
E436  E   0.75000  0.11578  0.88422
E437  E   0.75000  0.38422  0.11578
E438  E   0.75000  0.38422  0.38422
E439  E   0.75000  0.38422  0.61578
E440  E   0.75000  0.38422  0.88422
E441  E   0.75000  0.61578  0.11578
E442  E   0.75000  0.61578  0.38422
E443  E   0.75000  0.61578  0.61578
E444  E   0.75000  0.61578  0.88422
E445  E   0.75000  0.88422  0.11578
E446  E   0.75000  0.88422  0.38422
E447  E   0.75000  0.88422  0.61578
E448  E   0.75000  0.88422  0.88422
E449  E   0.77157  0.07610  0.32298
E450  E   0.77157  0.07610  0.67702
E451  E   0.77157  0.17702  0.07610
E452  E   0.77157  0.17702  0.92390
E453  E   0.77157  0.32298  0.42390
E454  E   0.77157  0.32298  0.57610
E455  E   0.77157  0.42390  0.17702
E456  E   0.77157  0.42390  0.82298
E457  E   0.77157  0.57610  0.17702
E458  E   0.77157  0.57610  0.82298
E459  E   0.77157  0.67702  0.42390
E460  E   0.77157  0.67702  0.57610
E461  E   0.77157  0.82298  0.07610
E462  E   0.77157  0.82298  0.92390
E463  E   0.77157  0.92390  0.32298
E464  E   0.77157  0.92390  0.67702
E465  E   0.80140  0.00000  0.15545
E466  E   0.80140  0.00000  0.84455
E467  E   0.80140  0.15545  0.50000
E468  E   0.80140  0.34455  0.00000
E469  E   0.80140  0.50000  0.34455
E470  E   0.80140  0.50000  0.65545
E471  E   0.80140  0.65545  0.00000
E472  E   0.80140  0.84455  0.50000
E473  E   0.82298  0.07610  0.22843
E474  E   0.82298  0.07610  0.77157
E475  E   0.82298  0.11578  0.36265
E476  E   0.82298  0.11578  0.63735
E477  E   0.82298  0.13735  0.11578
E478  E   0.82298  0.13735  0.88422
E479  E   0.82298  0.22843  0.42390
E480  E   0.82298  0.22843  0.57610
E481  E   0.82298  0.27157  0.07610
E482  E   0.82298  0.27157  0.92390
E483  E   0.82298  0.36265  0.38422
E484  E   0.82298  0.36265  0.61578
E485  E   0.82298  0.38422  0.13735
E486  E   0.82298  0.38422  0.86265
E487  E   0.82298  0.42390  0.27157
E488  E   0.82298  0.42390  0.72843
E489  E   0.82298  0.57610  0.27157
E490  E   0.82298  0.57610  0.72843
E491  E   0.82298  0.61578  0.13735
E492  E   0.82298  0.61578  0.86265
E493  E   0.82298  0.63735  0.38422
E494  E   0.82298  0.63735  0.61578
E495  E   0.82298  0.72843  0.07610
E496  E   0.82298  0.72843  0.92390
E497  E   0.82298  0.77157  0.42390
E498  E   0.82298  0.77157  0.57610
E499  E   0.82298  0.86265  0.11578
E500  E   0.82298  0.86265  0.88422
E501  E   0.82298  0.88422  0.36265
E502  E   0.82298  0.88422  0.63735
E503  E   0.82298  0.92390  0.22843
E504  E   0.82298  0.92390  0.77157
E505  E   0.84455  0.00000  0.30140
E506  E   0.84455  0.00000  0.69860
E507  E   0.84455  0.19860  0.00000
E508  E   0.84455  0.30140  0.50000
E509  E   0.84455  0.50000  0.19860
E510  E   0.84455  0.50000  0.80140
E511  E   0.84455  0.69860  0.50000
E512  E   0.84455  0.80140  0.00000
E513  E   0.86265  0.11578  0.17702
E514  E   0.86265  0.11578  0.82298
E515  E   0.86265  0.17702  0.38422
E516  E   0.86265  0.17702  0.61578
E517  E   0.86265  0.32298  0.11578
E518  E   0.86265  0.32298  0.88422
E519  E   0.86265  0.38422  0.32298
E520  E   0.86265  0.38422  0.67702
E521  E   0.86265  0.61578  0.32298
E522  E   0.86265  0.61578  0.67702
E523  E   0.86265  0.67702  0.11578
E524  E   0.86265  0.67702  0.88422
E525  E   0.86265  0.82298  0.38422
E526  E   0.86265  0.82298  0.61578
E527  E   0.86265  0.88422  0.17702
E528  E   0.86265  0.88422  0.82298
E529  E   0.88422  0.11578  0.25000
E530  E   0.88422  0.11578  0.75000
E531  E   0.88422  0.13735  0.32298
E532  E   0.88422  0.13735  0.67702
E533  E   0.88422  0.17702  0.13735
E534  E   0.88422  0.17702  0.86265
E535  E   0.88422  0.25000  0.11578
E536  E   0.88422  0.25000  0.38422
E537  E   0.88422  0.25000  0.61578
E538  E   0.88422  0.25000  0.88422
E539  E   0.88422  0.32298  0.36265
E540  E   0.88422  0.32298  0.63735
E541  E   0.88422  0.36265  0.17702
E542  E   0.88422  0.36265  0.82298
E543  E   0.88422  0.38422  0.25000
E544  E   0.88422  0.38422  0.75000
E545  E   0.88422  0.61578  0.25000
E546  E   0.88422  0.61578  0.75000
E547  E   0.88422  0.63735  0.17702
E548  E   0.88422  0.63735  0.82298
E549  E   0.88422  0.67702  0.36265
E550  E   0.88422  0.67702  0.63735
E551  E   0.88422  0.75000  0.11578
E552  E   0.88422  0.75000  0.38422
E553  E   0.88422  0.75000  0.61578
E554  E   0.88422  0.75000  0.88422
E555  E   0.88422  0.82298  0.13735
E556  E   0.88422  0.82298  0.86265
E557  E   0.88422  0.86265  0.32298
E558  E   0.88422  0.86265  0.67702
E559  E   0.88422  0.88422  0.25000
E560  E   0.88422  0.88422  0.75000
E561  E   0.92390  0.17702  0.27157
E562  E   0.92390  0.17702  0.72843
E563  E   0.92390  0.22843  0.17702
E564  E   0.92390  0.22843  0.82298
E565  E   0.92390  0.27157  0.32298
E566  E   0.92390  0.27157  0.67702
E567  E   0.92390  0.32298  0.22843
E568  E   0.92390  0.32298  0.77157
E569  E   0.92390  0.67702  0.22843
E570  E   0.92390  0.67702  0.77157
E571  E   0.92390  0.72843  0.32298
E572  E   0.92390  0.72843  0.67702
E573  E   0.92390  0.77157  0.17702
E574  E   0.92390  0.77157  0.82298
E575  E   0.92390  0.82298  0.27157
E576  E   0.92390  0.82298  0.72843
loop_
