data_pcu-g_Ia-3  hall_number: 502, V_con: 3
_audit_creation_date              2025-03-06
_audit_creation_method            'MOFbuilder_1.0'
_symmetry_space_group_name_H-M    'P1'
_symmetry_Int_Tables_number       1
_symmetry_cell_setting            triclinic
loop_
_symmetry_equiv_pos_as_xyz
  x,y,z
_cell_length_a                    53.373
_cell_length_b                    53.373
_cell_length_c                    53.373
_cell_angle_alpha                 90.0
_cell_angle_beta                  90.0
_cell_angle_gamma                 90.0
loop_
_atom_site_label
_atom_site_type_symbol
_atom_site_fract_x
_atom_site_fract_y
_atom_site_fract_z
V1    V   0.01992  0.15846  0.43063
V2    V   0.01992  0.34154  0.93063
V3    V   0.01992  0.65846  0.56937
V4    V   0.01992  0.84154  0.06937
V5    V   0.06937  0.01992  0.84154
V6    V   0.06937  0.48008  0.34154
V7    V   0.06937  0.51992  0.15846
V8    V   0.06937  0.98008  0.65846
V9    V   0.15846  0.06937  0.51992
V10   V   0.15846  0.43063  0.01992
V11   V   0.15846  0.56937  0.48008
V12   V   0.15846  0.93063  0.98008
V13   V   0.34154  0.06937  0.48008
V14   V   0.34154  0.43063  0.98008
V15   V   0.34154  0.56937  0.51992
V16   V   0.34154  0.93063  0.01992
V17   V   0.43063  0.01992  0.15846
V18   V   0.43063  0.48008  0.65846
V19   V   0.43063  0.51992  0.84154
V20   V   0.43063  0.98008  0.34154
V21   V   0.48008  0.15846  0.56937
V22   V   0.48008  0.34154  0.06937
V23   V   0.48008  0.65846  0.43063
V24   V   0.48008  0.84154  0.93063
V25   V   0.51992  0.15846  0.06937
V26   V   0.51992  0.34154  0.56937
V27   V   0.51992  0.65846  0.93063
V28   V   0.51992  0.84154  0.43063
V29   V   0.56937  0.01992  0.65846
V30   V   0.56937  0.48008  0.15846
V31   V   0.56937  0.51992  0.34154
V32   V   0.56937  0.98008  0.84154
V33   V   0.65846  0.06937  0.98008
V34   V   0.65846  0.43063  0.48008
V35   V   0.65846  0.56937  0.01992
V36   V   0.65846  0.93063  0.51992
V37   V   0.84154  0.06937  0.01992
V38   V   0.84154  0.43063  0.51992
V39   V   0.84154  0.56937  0.98008
V40   V   0.84154  0.93063  0.48008
V41   V   0.93063  0.01992  0.34154
V42   V   0.93063  0.48008  0.84154
V43   V   0.93063  0.51992  0.65846
V44   V   0.93063  0.98008  0.15846
V45   V   0.98008  0.15846  0.93063
V46   V   0.98008  0.34154  0.43063
V47   V   0.98008  0.65846  0.06937
V48   V   0.98008  0.84154  0.56937
E1    E   0.00000  0.25000  0.43063
E2    E   0.00000  0.25000  0.93063
E3    E   0.00000  0.75000  0.06937
E4    E   0.00000  0.75000  0.56937
E5    E   0.02472  0.08919  0.88608
E6    E   0.02472  0.41081  0.38608
E7    E   0.02472  0.58919  0.11392
E8    E   0.02472  0.91081  0.61392
E9    E   0.06937  0.00000  0.75000
E10   E   0.06937  0.50000  0.25000
E11   E   0.08919  0.11392  0.47528
E12   E   0.08919  0.38608  0.97528
E13   E   0.08919  0.61392  0.52472
E14   E   0.08919  0.88608  0.02472
E15   E   0.11392  0.02472  0.58919
E16   E   0.11392  0.47528  0.08919
E17   E   0.11392  0.52472  0.41081
E18   E   0.11392  0.97528  0.91081
E19   E   0.25000  0.06937  0.50000
E20   E   0.25000  0.43063  0.00000
E21   E   0.25000  0.56937  0.50000
E22   E   0.25000  0.93063  0.00000
E23   E   0.38608  0.02472  0.41081
E24   E   0.38608  0.47528  0.91081
E25   E   0.38608  0.52472  0.58919
E26   E   0.38608  0.97528  0.08919
E27   E   0.41081  0.11392  0.52472
E28   E   0.41081  0.38608  0.02472
E29   E   0.41081  0.61392  0.47528
E30   E   0.41081  0.88608  0.97528
E31   E   0.43063  0.00000  0.25000
E32   E   0.43063  0.50000  0.75000
E33   E   0.47528  0.08919  0.11392
E34   E   0.47528  0.41081  0.61392
E35   E   0.47528  0.58919  0.88608
E36   E   0.47528  0.91081  0.38608
E37   E   0.50000  0.25000  0.06937
E38   E   0.50000  0.25000  0.56937
E39   E   0.50000  0.75000  0.43063
E40   E   0.50000  0.75000  0.93063
E41   E   0.52472  0.08919  0.61392
E42   E   0.52472  0.41081  0.11392
E43   E   0.52472  0.58919  0.38608
E44   E   0.52472  0.91081  0.88608
E45   E   0.56937  0.00000  0.75000
E46   E   0.56937  0.50000  0.25000
E47   E   0.58919  0.11392  0.02472
E48   E   0.58919  0.38608  0.52472
E49   E   0.58919  0.61392  0.97528
E50   E   0.58919  0.88608  0.47528
E51   E   0.61392  0.02472  0.91081
E52   E   0.61392  0.47528  0.41081
E53   E   0.61392  0.52472  0.08919
E54   E   0.61392  0.97528  0.58919
E55   E   0.75000  0.06937  0.00000
E56   E   0.75000  0.43063  0.50000
E57   E   0.75000  0.56937  0.00000
E58   E   0.75000  0.93063  0.50000
E59   E   0.88608  0.02472  0.08919
E60   E   0.88608  0.47528  0.58919
E61   E   0.88608  0.52472  0.91081
E62   E   0.88608  0.97528  0.41081
E63   E   0.91081  0.11392  0.97528
E64   E   0.91081  0.38608  0.47528
E65   E   0.91081  0.61392  0.02472
E66   E   0.91081  0.88608  0.52472
E67   E   0.93063  0.00000  0.25000
E68   E   0.93063  0.50000  0.75000
E69   E   0.97528  0.08919  0.38608
E70   E   0.97528  0.41081  0.88608
E71   E   0.97528  0.58919  0.61392
E72   E   0.97528  0.91081  0.11392
loop_
