data_placed_structure
_audit_creation_date              2025-02-10
_audit_creation_method            'MOFbuilder_1.0'
_symmetry_space_group_name_H-M    'P1'
_symmetry_Int_Tables_number       1
_symmetry_cell_setting            triclinic
loop_
_symmetry_equiv_pos_as_xyz
  x,y,z
_cell_length_a                    37.23598
_cell_length_b                    37.23597
_cell_length_c                    37.23597
_cell_angle_alpha                 90.0
_cell_angle_beta                  90.0
_cell_angle_gamma                 90.0
loop_
_atom_site_label
_atom_site_type_symbol
_atom_site_fract_x
_atom_site_fract_y
_atom_site_fract_z
O          O    0.0485969094    0.9344283125    0.9319643689
O          O    0.0924656470    0.9706208343    0.9698194435
X          X    0.0833928528    0.9474690725    0.9409133983
O          O    0.9514764844    0.0675702444    0.9338866934
O          O    0.9075693475    0.0302637932    0.9705980471
X          X    0.9166702822    0.0542699219    0.9424059395
O          O    0.0481189339    0.0679153712    0.9339485784
O          O    0.0922497222    0.0309233186    0.9707163071
X          X    0.0830083035    0.0548639436    0.9425124540
O          O    0.9519544600    0.9340831857    0.9319024839
O          O    0.9077852722    0.9699613090    0.9697011834
X          X    0.9170548315    0.9468750509    0.9408068838
Zr        Zr    0.0001865913    0.9558787094    0.9546705677
O          O    0.0002066380    0.9603666656    0.8983358170
O          O    0.9957550481    0.8987475569    0.9550392701
Zr        Zr    0.9998658608    0.0454506018    0.9560042482
O          O    0.0050614832    0.0461874063    0.8989332611
O          O    0.9936613032    0.1018585475    0.9614735753
O          O    0.0326654088    0.0008904206    0.9480409082
O          O    0.9673956346    0.0006573310    0.9479991127
O          O    0.9518756950    0.9320846096    0.0660514182
O          O    0.9077502778    0.9690766814    0.0292836929
X          X    0.9169863254    0.9451360372    0.0574875426
O          O    0.0480401689    0.0659167951    0.0680975127
O          O    0.0922147278    0.0300386910    0.0302988166
X          X    0.0829397974    0.0531249300    0.0591931128
O          O    0.9513977195    0.0655716683    0.0680356277
O          O    0.9075343530    0.0293791657    0.0301805565
X          X    0.9166017761    0.0525309083    0.0590865982
O          O    0.0485181445    0.9324297364    0.0661133032
O          O    0.0924306525    0.9697362068    0.0294019529
X          X    0.0833243467    0.9457300589    0.0575940571
Zr        Zr    0.0001341392    0.9545493982    0.0439957518
O          O    0.0048723389    0.9546026258    0.1011414036
O          O    0.0014515637    0.8977657190    0.0396150469
Zr        Zr    0.9998134087    0.0441212906    0.0453294323
O          O    0.9982896516    0.0424851629    0.1021901431
O          O    0.0015350994    0.1011856203    0.0412799132
Zr        Zr    0.0535822306    0.0001913514    0.0000343114
Zr        Zr    0.9464123982    0.9998086295    0.9999656852
O          O    0.9673345912    0.9991095794    0.0519590918
O          O    0.0326043654    0.9993426690    0.0520008873
O          O    0.9672670106    0.9477791403    0.9992028755
O          O    0.0327329894    0.0522208597    0.0007971245
O          O    0.0331061228    0.9480142631    0.9992450356
O          O    0.9668938772    0.0519857369    0.0007549644
H          H    0.9516677478    0.0009803550    0.9226873871
H          H    0.0489505370    0.0771775226    0.0011779128
H          H    0.9515770093    0.9986741154    0.0772506557
H          H    0.0495019778    0.9231740683    0.9988851312
H          H    0.0172567822    0.1130810983    0.9661991391
H          H    0.9794108355    0.1094869654    0.0290904045
H          H    0.0166569904    0.0250742112    0.1103207718
H          H    0.9849855733    0.9684611885    0.1118564340
H          H    0.9807132714    0.8899088424    0.0249498923
H          H    0.0159793106    0.8883035410    0.9686073419
H          H    0.0201302526    0.9762423995    0.8907233993
H          H    0.9856117180    0.0317779036    0.8881299252
H          H    0.0005838264    0.9296772606    0.1095447183
H          H    0.9998025787    0.8903430822    0.9300773406
H          H    0.0000418715    0.0710407622    0.8907153151
H          H    0.9995188603    0.1108603516    0.0660093166
O          O    0.0480403837    0.4340836503    0.4319022077
O          O    0.0922148255    0.4699617256    0.4697010679
X          X    0.0829399713    0.4468755842    0.4408066694
O          O    0.9518754967    0.5679155302    0.4339488701
O          O    0.9077501873    0.5309231619    0.4707164265
X          X    0.9169861659    0.5548639576    0.4425126829
O          O    0.0485179472    0.5675707018    0.4338869999
O          O    0.0924305641    0.5302642067    0.4705981947
X          X    0.0833241890    0.5542704495    0.4424061938
O          O    0.9513979332    0.4344284787    0.4319640779
O          O    0.9075344487    0.4706206809    0.4698192996
X          X    0.9166019481    0.4474690924    0.4409131584
Zr        Zr    0.9998135524    0.4558789066    0.4546703751
O          O    0.9997935014    0.4603671087    0.3983356440
O          O    0.9949747294    0.3987808443    0.4550447639
Zr        Zr    0.0001340064    0.5454507942    0.4560044466
O          O    0.0052616721    0.5461509974    0.3989268529
O          O    0.9943393209    0.6019015488    0.4614817026
O          O    0.0326043721    0.5006576586    0.4479991211
O          O    0.9673345972    0.5008905466    0.4480409066
O          O    0.9514766817    0.4324293174    0.5661130035
O          O    0.9075694359    0.4697357933    0.5294018053
X          X    0.9166704399    0.4457295697    0.5575938096
O          O    0.0485966957    0.5655715405    0.5680359255
O          O    0.0924655513    0.5293793191    0.5301807004
X          X    0.0833926808    0.5525309268    0.5590868450
O          O    0.9519542452    0.5659163689    0.5680977957
O          O    0.9077851745    0.5300382744    0.5302989321
X          X    0.9170546576    0.5531244350    0.5591933341
O          O    0.0481191322    0.4320844890    0.5660511333
O          O    0.0922498127    0.4690768381    0.5292835735
X          X    0.0830084630    0.4451360616    0.5574873206
Zr        Zr    0.9998659936    0.4545492058    0.5439955534
O          O    0.0046776244    0.4545680947    0.6011350908
O          O    0.0007723861    0.3977576075    0.5396131769
Zr        Zr    0.0001864476    0.5441210934    0.5453296249
O          O    0.9987238609    0.5424953777    0.6021922407
O          O    0.0023102990    0.6011717135    0.5412778926
Zr        Zr    0.0535822312    0.4998088141    0.4999656968
Zr        Zr    0.9464123977    0.5001912051    0.5000343066
O          O    0.9673956279    0.4993423414    0.5520008789
O          O    0.0326654028    0.4991094534    0.5519590934
O          O    0.9668940377    0.4480141643    0.4992448031
O          O    0.0331059623    0.5519858357    0.5007551969
O          O    0.0327331506    0.4477792448    0.4992026531
O          O    0.9672668494    0.5522207552    0.5007973469
H          H    0.9515770182    0.5013260723    0.4227493420
H          H    0.0495017406    0.5768260795    0.5011152124
H          H    0.9516677378    0.4990191585    0.5773126004
H          H    0.0489507753    0.4228226336    0.4988217586
H          H    0.0180203501    0.6129553196    0.4661770452
H          H    0.9802302728    0.6096309047    0.5291167232
H          H    0.0169768283    0.5249536697    0.6102993461
H          H    0.9849040412    0.4685681833    0.6118755755
H          H    0.9799597688    0.3900491161    0.5249745922
H          H    0.0151412725    0.3881925891    0.4685869287
H          H    0.0198201836    0.4761002681    0.3906977162
H          H    0.9856957129    0.5318808135    0.3881484352
H          H    0.0002220391    0.4296739060    0.6095438955
H          H    0.9989301885    0.3903479108    0.4300776736
H          H    0.0004091014    0.5710396292    0.3907153363
H          H    0.0003948488    0.6108603716    0.5660098556
O          O    0.5485760866    0.9342760035    0.4320965906
O          O    0.5924544394    0.9702883184    0.4701120449
X          X    0.5833907507    0.9471828635    0.4411661193
O          O    0.4519478262    0.0677790781    0.4337563287
O          O    0.4077806426    0.0306214058    0.4703062770
X          X    0.4170642412    0.0546052979    0.4421548317
O          O    0.5485901591    0.0677630640    0.4341373906
O          O    0.5924607946    0.0305908033    0.4710344732
X          X    0.5834020619    0.0545777348    0.4428107039
O          O    0.4519337536    0.9342920176    0.4317155286
O          O    0.4077742873    0.9703189209    0.4693838487
X          X    0.4170529299    0.9472104265    0.4405102471
Zr        Zr    0.5001714988    0.9558975215    0.4546522050
O          O    0.5003943658    0.9604092292    0.3983197888
O          O    0.4955253990    0.8987831756    0.4549813762
Zr        Zr    0.5001809329    0.0454694142    0.4560238586
O          O    0.5055677316    0.0462109696    0.3989706603
O          O    0.4941690815    0.1018978285    0.4614972584
O          O    0.5328399344    0.0007903625    0.4481494163
O          O    0.4675702389    0.0008011780    0.4478920570
O          O    0.4514044698    0.9322369369    0.5658625882
O          O    0.4075392054    0.9694091967    0.5289655268
X          X    0.4165925669    0.9454222660    0.5571892749
O          O    0.5480608753    0.0657079833    0.5682844502
O          O    0.5922257127    0.0296810791    0.5306161513
X          X    0.5829416990    0.0527895744    0.5594897318
O          O    0.4514185423    0.0657239974    0.5679033882
O          O    0.4075455606    0.0297116816    0.5298879551
X          X    0.4166038782    0.0528171374    0.5588338596
O          O    0.5480468027    0.9322209228    0.5662436502
O          O    0.5922193574    0.9693785942    0.5296937230
X          X    0.5829303877    0.9453947030    0.5578451471
Zr        Zr    0.4998190671    0.9545305858    0.5439761414
O          O    0.5043686712    0.9545419068    0.6011371408
O          O    0.5009388473    0.8977442407    0.5395750609
Zr        Zr    0.4998285012    0.0441024785    0.5453477950
O          O    0.4981108574    0.0424479750    0.6022024474
O          O    0.5017766892    0.1011616865    0.5413288530
Zr        Zr    0.5535821660    0.9999911212    0.5002112752
Zr        Zr    0.4464124629    0.0000088797    0.4997887036
O          O    0.4671600656    0.9992096375    0.5518505837
O          O    0.5324297611    0.9991988220    0.5521079430
O          O    0.4670749969    0.9479021566    0.4990720648
O          O    0.5329250031    0.0520978434    0.5009279352
O          O    0.5329140297    0.9478912467    0.4993316690
O          O    0.4670859703    0.0521087533    0.5006683310
H          H    0.4519273514    0.0011936878    0.4225286931
H          H    0.5492343087    0.0769935704    0.5013731344
H          H    0.4513175224    0.9988223450    0.5770898001
H          H    0.5492180874    0.9229901156    0.4990150646
H          H    0.5177905781    0.1130301323    0.4663055786
H          H    0.4797239655    0.1095508043    0.5290699953
H          H    0.5163860821    0.0249650721    0.6103860751
H          H    0.4844985282    0.9684701421    0.6117925037
H          H    0.4802199008    0.8899711207    0.5248381040
H          H    0.5156655887    0.8882579179    0.4686115833
H          H    0.5204021727    0.9762136286    0.3907801026
H          H    0.4861000667    0.0318788197    0.3880968984
H          H    0.4999593582    0.9296291833    0.6095153886
H          H    0.4996239292    0.8903742080    0.4300292834
H          H    0.5006681551    0.0710863863    0.3907470218
H          H    0.4997149379    0.1108334101    0.5660556801
O          O    0.5480603667    0.4342924057    0.9317148175
O          O    0.5922254839    0.4703188397    0.9693832380
X          X    0.5829412720    0.4472106160    0.9405095040
O          O    0.4514044534    0.5677637816    0.9341381632
O          O    0.4075392010    0.5305913764    0.9710350923
X          X    0.4165925373    0.5545785069    0.9428115059
O          O    0.5480467849    0.5677794494    0.9337567178
O          O    0.5922193503    0.5306213170    0.9703061634
X          X    0.5829303556    0.5546054738    0.9421549738
O          O    0.4514180352    0.4342767379    0.9320962629
O          O    0.4075453346    0.4702888991    0.9701121670
X          X    0.4166034537    0.4471836490    0.9411660361
Zr        Zr    0.4998281617    0.4558978958    0.9546518422
O          O    0.4996050875    0.4604100687    0.8983194641
O          O    0.4952035253    0.3987820275    0.9550171148
Zr        Zr    0.4998190570    0.5454697773    0.9560242340
O          O    0.5047553025    0.5462134960    0.8989303175
O          O    0.4938320808    0.6018961795    0.9615454351
O          O    0.5324295572    0.5008014902    0.9478919349
O          O    0.4671598627    0.5007909086    0.9481495532
O          O    0.4519478440    0.4322205497    0.0662433034
O          O    0.4077806497    0.4693786830    0.0296938366
X          X    0.4170642733    0.4453945253    0.0578450474
O          O    0.5485765937    0.5657232612    0.0679037583
O          O    0.5924546654    0.5297111009    0.0298878330
X          X    0.5833911752    0.5528163501    0.0588339851
O          O    0.4519342622    0.5657075934    0.0682852037
O          O    0.4077745161    0.5296811603    0.0306167620
X          X    0.4170533569    0.5527893831    0.0594905172
O          O    0.5485901755    0.4322362175    0.0658618580
O          O    0.5924607990    0.4694086236    0.0289649077
X          X    0.5834020916    0.4454214922    0.0571885153
Zr        Zr    0.5001809430    0.4545302227    0.0439757660
O          O    0.5051813943    0.4545426373    0.1010990905
O          O    0.5012845783    0.3977442785    0.0395654452
Zr        Zr    0.5001718383    0.5441021042    0.0453481578
O          O    0.4989033661    0.5424466417    0.1022145768
O          O    0.5020695533    0.6011619757    0.0413145148
Zr        Zr    0.5535821652    0.5000086868    0.9997885122
Zr        Zr    0.4464124637    0.4999913123    0.0002115090
O          O    0.4675704428    0.4991985098    0.0521080651
O          O    0.5328401373    0.4992090914    0.0518504468
O          O    0.4670857792    0.4478913713    0.9993313701
O          O    0.5329142208    0.5521086287    0.0006686299
O          O    0.5329248111    0.4479020452    0.9990715048
O          O    0.4670751889    0.5520979548    0.0009284952
H          H    0.4513172207    0.5011784664    0.9229104028
H          H    0.5492183698    0.5770096983    0.0009853747
H          H    0.4519276546    0.4988058475    0.0774714878
H          H    0.5492340248    0.4230062629    0.9986260356
H          H    0.5174871289    0.6130361936    0.9661673414
H          H    0.4799180466    0.6095439484    0.0292301119
H          H    0.5172483194    0.5249696744    0.1102535937
H          H    0.4853913747    0.4684642831    0.1119110276
H          H    0.4804525531    0.3899644687    0.0249923425
H          H    0.5154540776    0.3882632785    0.9684878937
H          H    0.5195476030    0.4762210793    0.8906223045
H          H    0.4852071499    0.5318750400    0.8882103545
H          H    0.5008464881    0.4296284112    0.1095116285
H          H    0.4991078154    0.3903745778    0.9300333815
H          H    0.4997828414    0.5710873623    0.8907458296
H          H    0.5001997874    0.6108328507    0.0660569316
C          C    0.1194016581    0.2275182650    0.3002809673
C          C    0.1185590343    0.1999866769    0.2744108404
C          C    0.1004066188    0.2043087269    0.2413785177
C          C    0.0832873215    0.2374800668    0.2354648176
C          C    0.0653476056    0.2419423467    0.2024790667
C          C    0.0481161202    0.2752250788    0.1966803921
C          C    0.0486853173    0.3026039136    0.2226951131
C          C    0.0665650848    0.2982206761    0.2558405476
C          C    0.0839577782    0.2651644496    0.2616147236
C          C    0.1020062785    0.2607351863    0.2945617387
C          C    0.1028840091    0.2903588076    0.3221646453
O          O    0.1214128946    0.2859772131    0.3493516252
N          N    0.0840230986    0.3210186604    0.3156614402
C          C    0.0666980863    0.3273476487    0.2840194515
O          O    0.0508112926    0.3556375437    0.2772946580
C          C    0.0823936648    0.3481030813    0.3430334848
C          C    0.1134936466    0.3671269407    0.3538648997
C          C    0.1110693472    0.3948831121    0.3793910499
X          X    0.0777389140    0.0999068775    0.1007607271
C          C    0.0468165367    0.3843494429    0.3848731753
C          C    0.0490637980    0.3569120638    0.3590098454
C          C    0.0647736959    0.2125153800    0.1746309130
O          O    0.0488942603    0.2183264571    0.1461230833
N          N    0.0819651789    0.1810405980    0.1820444412
C          C    0.0988007224    0.1746383150    0.2138506016
O          O    0.1120722008    0.1452324680    0.2216635311
C          C    0.0813433115    0.1532589560    0.1553150412
C          C    0.0987791412    0.1585091211    0.1219907652
C          C    0.0969782186    0.1320562695    0.0950191406
C          C    0.0603305779    0.0945978299    0.1340747883
C          C    0.0625020482    0.1207500359    0.1612349758
H          H    0.0247935061    0.3430353530    0.3511530158
H          H    0.1132013170    0.1831148786    0.1165488014
X          X    0.0777408234    0.4036117472    0.3953399368
H          H    0.0210425159    0.3908566533    0.3966097645
H          H    0.1102305839    0.1366831973    0.0695609172
H          H    0.0448602046    0.0706916770    0.1394408822
O          O    0.0465661111    0.1137374916    0.1934337796
H          H    0.0635177677    0.1152846598    0.2124192209
H          H    0.0340186744    0.2799040685    0.1717279981
H          H    0.0349230967    0.3275860632    0.2170321859
H          H    0.1336615936    0.2229101539    0.3251915292
H          H    0.1321029991    0.1749598481    0.2801675113
O          O    0.1464857952    0.3586829199    0.3404536758
H          H    0.1515640303    0.3339207457    0.3439986821
H          H    0.1352975953    0.4093001767    0.3861380801
C          C    0.2232300073    0.2985479462    0.9792277552
C          C    0.1983107919    0.2701493138    0.9785123069
C          C    0.2054758668    0.2378919381    0.9598723441
C          C    0.2387544915    0.2354009997    0.9421323356
C          C    0.2460583963    0.2032011745    0.9237032962
C          C    0.2794347981    0.2008367206    0.9058507419
C          C    0.3041832112    0.2293675232    0.9062971905
C          C    0.2969415082    0.2617345756    0.9246670158
C          C    0.2637957378    0.2640947531    0.9426766811
C          C    0.2565303521    0.2962580139    0.9612134421
C          C    0.2833650518    0.3265829833    0.9619513777
O          O    0.2767110501    0.3530128154    0.9808944039
N          N    0.3141702947    0.3232818937    0.9425042264
C          C    0.3232132209    0.2925930511    0.9246759305
O          O    0.3517339584    0.2888095274    0.9082386740
C          C    0.3384558924    0.3531594395    0.9407746531
C          C    0.3568943494    0.3654340403    0.9716905626
C          C    0.3820123843    0.3935481445    0.9691317071
X          X    0.1147353436    0.0881027152    0.9371506356
C          C    0.3698630272    0.3986966735    0.9051369929
C          C    0.3450916276    0.3702797515    0.9075092836
C          C    0.2194484331    0.1726477656    0.9232627413
O          O    0.2276993161    0.1450121935    0.9069281271
N          N    0.1877148426    0.1767945678    0.9410658949
C          C    0.1785744762    0.2076451319    0.9584081293
O          O    0.1487919225    0.2124327056    0.9722629511
C          C    0.1626335466    0.1475141323    0.9405643717
C          C    0.1713806207    0.1146624525    0.9574858288
C          C    0.1476241917    0.0852823811    0.9557804253
C          C    0.1059311425    0.1209382347    0.9202575112
C          C    0.1293767531    0.1504728261    0.9223407571
H          H    0.3316096235    0.3613875195    0.8833741653
H          H    0.1966479846    0.1114646032    0.9714282561
X          X    0.3885708323    0.4106333340    0.9358686616
H          H    0.3747507201    0.4112913589    0.8794100389
H          H    0.1549184293    0.0602454796    0.9686296477
H          H    0.0813487670    0.1241397669    0.9052545658
O          O    0.1190108802    0.1820174836    0.9069337400
H          H    0.1190200179    0.2008750184    0.9240974466
H          H    0.2862477546    0.1766106290    0.8913616744
H          H    0.3293473670    0.2262977044    0.8920523143
H          H    0.2164944992    0.3227374572    0.9938775717
H          H    0.1730892676    0.2733105271    0.9925409064
O          O    0.3503684819    0.3509057037    0.0046448542
H          H    0.3254736945    0.3519849006    0.0101770679
H          H    0.3961384118    0.4013885203    0.9932017349
C          C    0.3010520240    0.2679105386    0.5951691526
C          C    0.2770310763    0.2970661698    0.5942179696
C          C    0.2439825779    0.2949871712    0.5757031443
C          C    0.2361134028    0.2623556872    0.5583352878
C          C    0.2031000300    0.2601326666    0.5400328263
C          C    0.1953396029    0.2273831283    0.5225533351
C          C    0.2195176342    0.1983719200    0.5232334648
C          C    0.2526858590    0.2005060083    0.5414771705
C          C    0.2604054495    0.2330303006    0.5591163163
C          C    0.2933768758    0.2352223411    0.5775269690
C          C    0.3189909003    0.2038665307    0.5785191184
O          O    0.3462065415    0.2063822337    0.5973507339
N          N    0.3107147486    0.1737881979    0.5594180305
C          C    0.2789147285    0.1696121702    0.5417333840
O          O    0.2705395093    0.1418982136    0.5256174406
C          C    0.3362895848    0.1449937730    0.5579152889
C          C    0.3455346239    0.1251514430    0.5890158887
C          C    0.3692324483    0.0958104219    0.5866955625
X          X    0.1106754437    0.4084032455    0.5521887480
C          C    0.3760672552    0.1062887954    0.5225634580
C          C    0.3520141962    0.1353344609    0.5247014808
C          C    0.1772253184    0.2913066221    0.5393408391
O          O    0.1485709174    0.2874368425    0.5231367888
N          N    0.1864803598    0.3221474893    0.5567866013
C          C    0.2184541414    0.3263884649    0.5739839153
O          O    0.2280152264    0.3551585561    0.5875022506
C          C    0.1616158584    0.3516072756    0.5560487654
C          C    0.1278382443    0.3484423645    0.5731114569
C          C    0.1026584310    0.3765978090    0.5711845881
C          C    0.1444463896    0.4116274389    0.5351537790
C          C    0.1698299122    0.3837579106    0.5374548187
H          H    0.3453312500    0.1498132979    0.5004312985
H          H    0.1206602420    0.3241693318    0.5873365642
X          X    0.3849348385    0.0862330624    0.5534832733
H          H    0.3876302545    0.0991634636    0.4968745802
H          H    0.0768146706    0.3735655656    0.5841483867
H          H    0.1515144659    0.4352125342    0.5198757804
O          O    0.2025827917    0.3887469425    0.5218904093
H          H    0.2212470843    0.3858863825    0.5390269409
H          H    0.1702874243    0.2244034550    0.5081740949
H          H    0.2123938257    0.1738791509    0.5092716976
H          H    0.3260561429    0.2708213810    0.6097100382
H          H    0.2842536379    0.3215985386    0.6079627128
O          O    0.3323495403    0.1342818670    0.6219162489
H          H    0.3374378928    0.1587361179    0.6271716360
H          H    0.3747734160    0.0808645777    0.6109092341
C          C    0.3791016334    0.2278743305    0.2006818210
C          C    0.3799270063    0.2005375308    0.2267582464
C          C    0.3988573909    0.2047464692    0.2593657610
C          C    0.4167725810    0.2376036016    0.2646416286
C          C    0.4354922427    0.2419567527    0.2972058642
C          C    0.4535194221    0.2749220229    0.3023634531
C          C    0.4529611808    0.3020993193    0.2761380224
C          C    0.4342996867    0.2978226868    0.2434122263
C          C    0.4161165188    0.2650873863    0.2382806097
C          C    0.3972896129    0.2607697948    0.2057571023
C          C    0.3964353511    0.2901850804    0.1779315561
O          O    0.3772508551    0.2859707958    0.1511762810
N          N    0.4160524822    0.3205001015    0.1837813291
C          C    0.4341675134    0.3267215114    0.2149993892
O          O    0.4507680201    0.3547302514    0.2211528333
C          C    0.4176572428    0.3473269324    0.1561553337
C          C    0.3867310983    0.3669015359    0.1458187901
C          C    0.3891830927    0.3943982187    0.1200159457
X          X    0.4223489184    0.1010193077    0.4003471714
C          C    0.4530769539    0.3824984373    0.1132776030
C          C    0.4508155602    0.3553194953    0.1394111638
C          C    0.4360520149    0.2127462873    0.3252813121
O          O    0.4526453295    0.2184548369    0.3534006257
N          N    0.4180677028    0.1815748767    0.3184933041
C          C    0.4004369636    0.1752687913    0.2871014756
O          O    0.3864048442    0.1460817925    0.2798147372
C          C    0.4186854424    0.1539994607    0.3454355016
C          C    0.4020681066    0.1598725780    0.3790725411
C          C    0.4038966830    0.1336032346    0.4062210792
C          C    0.4389377839    0.0950879704    0.3667214131
C          C    0.4367286898    0.1210628863    0.3393946387
H          H    0.4749574347    0.3410080167    0.1468738323
H          H    0.3882703070    0.1848129851    0.3846091698
X          X    0.4223390043    0.4023106997    0.1032999435
H          H    0.4787251286    0.3883792913    0.1009496609
H          H    0.3912821799    0.1387045205    0.4319116609
H          H    0.4537992385    0.0708259815    0.3612328217
O          O    0.4518344985    0.1134676917    0.3069289582
H          H    0.4345209677    0.1152133239    0.2882904555
H          H    0.4682332966    0.2795072785    0.3269750399
H          H    0.4673479616    0.3268365063    0.2813020674
H          H    0.3642276722    0.2233636195    0.1761148655
H          H    0.3657554939    0.1757504296    0.2214962839
O          O    0.3538636594    0.3592465099    0.1599883464
H          H    0.3482063265    0.3345669651    0.1567579500
H          H    0.3651177267    0.4092578653    0.1136573890
C          C    0.2242261778    0.9089638899    0.2966942511
C          C    0.1989666140    0.9096752541    0.2685978122
C          C    0.2057234657    0.9283488008    0.2362718411
C          C    0.2389507691    0.9461266678    0.2333955071
C          C    0.2458473577    0.9645893947    0.2011252415
C          C    0.2791738314    0.9824798114    0.1983742992
C          C    0.3042639068    0.9820371565    0.2266051710
C          C    0.2974314625    0.9636335765    0.2590419523
C          C    0.2643357199    0.9455863011    0.2617857181
C          C    0.2574773231    0.9270159234    0.2940188711
C          C    0.2846754134    0.9262825917    0.3240184630
O          O    0.2783598646    0.9073112076    0.3505109230
N          N    0.3154179520    0.9457655833    0.3203631601
C          C    0.3240722417    0.9636282300    0.2895823734
O          O    0.3525278571    0.9800992538    0.2854696797
C          C    0.3400591111    0.9474973692    0.3499480145
C          C    0.3586768150    0.9165915188    0.3619748800
C          C    0.3841282653    0.9191548980    0.3897870902
X          X    0.1131645602    0.9510928236    0.0876027853
C          C    0.3719733190    0.9831323267    0.3951334518
C          C    0.3468646392    0.9807561286    0.3670144310
C          C    0.2188715589    0.9650257715    0.1708942828
O          O    0.2267721643    0.9813914348    0.1431748484
N          N    0.1872091510    0.9471850968    0.1754077363
C          C    0.1784588530    0.9298082765    0.2063518003
O          O    0.1487508247    0.9159175193    0.2114857441
C          C    0.1617771462    0.9476830688    0.1464313324
C          C    0.1701467289    0.9307974099    0.1134630977
C          C    0.1460370107    0.9325007693    0.0843721205
C          C    0.1047376907    0.9679501012    0.1205555244
C          C    0.1285388743    0.9658684407    0.1498044388
H          H    0.3332509330    0.0048838240    0.3583045813
H          H    0.1953887042    0.9168848002    0.1099503822
X          X    0.3908560920    0.9524112784    0.4068193139
H          H    0.3769845800    0.0088544235    0.4076894386
H          H    0.1530434589    0.9196795063    0.0592388805
H          H    0.0801795651    0.9829239635    0.1240645530
O          O    0.1185365160    0.9812389643    0.1814839708
H          H    0.1187906888    0.9640601558    0.2003260372
H          H    0.2856795743    0.9969956444    0.1740798786
H          H    0.3293741071    0.9963116108    0.2232446924
H          H    0.2177976096    0.8942874209    0.3209510316
H          H    0.1737999170    0.8956169411    0.2720505448
O          O    0.3520119742    0.8836418761    0.3474991836
H          H    0.3271378840    0.8780819636    0.3488730485
H          H    0.3983732333    0.8950938313    0.3974374715
C          C    0.7767438432    0.9847342000    0.2961155524
C          C    0.8019809236    0.9835900978    0.2680131986
C          C    0.7950515886    0.9647165964    0.2358402277
C          C    0.7616766104    0.9471922976    0.2331218964
C          C    0.7546093201    0.9285312029    0.2010030201
C          C    0.7211343133    0.9108961810    0.1984110213
C          C    0.6960645657    0.9117712570    0.2266498589
C          C    0.7030673173    0.9303750648    0.2589357481
C          C    0.7363128958    0.9481687895    0.2615194359
C          C    0.7433428663    0.9669375489    0.2936003627
C          C    0.7161685731    0.9681348176    0.3236065912
O          O    0.7226558222    0.9872633850    0.3499440837
N          N    0.6852637190    0.9488787241    0.3201216614
C          C    0.6764445907    0.9308440815    0.2894883079
O          O    0.6478512656    0.9145771720    0.2855208984
C          C    0.6606256245    0.9475865551    0.3497315248
C          C    0.6422712078    0.9787402867    0.3615211973
C          C    0.6168149720    0.9766091900    0.3893654922
X          X    0.8873357779    0.9400245361    0.0873112396
C          C    0.6284427270    0.9125778139    0.3952149256
C          C    0.6535544825    0.9145221407    0.3670654890
C          C    0.7815636589    0.9276308706    0.1707631782
O          O    0.7735122978    0.9111112228    0.1431787920
N          N    0.8133752317    0.9452439615    0.1751188496
C          C    0.8222864335    0.9627933134    0.2059192949
O          O    0.8521113339    0.9764778750    0.2109278420
C          C    0.8387860216    0.9443048083    0.1461347752
C          C    0.8305380993    0.9609964186    0.1130373158
C          C    0.8546166029    0.9588620008    0.0839489190
C          C    0.8956412113    0.9233607075    0.1203929498
C          C    0.8718744525    0.9258721017    0.1496361152
H          H    0.6669630565    0.8902139616    0.3585412450
H          H    0.8054102308    0.9750892874    0.1094264333
X          X    0.6098215293    0.9435462388    0.4066652074
H          H    0.6232256735    0.8869988181    0.4079777281
H          H    0.8477024976    0.9715405202    0.0587178836
H          H    0.9200764639    0.9082122921    0.1240089303
O          O    0.8817669191    0.9106717478    0.1814320468
H          H    0.8816655483    0.9280014244    0.2001369008
H          H    0.7144950009    0.8962419326    0.1742361272
H          H    0.6708351502    0.8976790406    0.2234155047
H          H    0.7833072927    0.9995494137    0.3202515671
H          H    0.8272650958    0.9974664530    0.2713414963
O          O    0.6492005575    0.0115173804    0.3467804007
H          H    0.6741205986    0.0168817817    0.3480976862
H          H    0.6027740133    0.0008475463    0.3968311434
C          C    0.7644318599    0.2848897601    0.9964174533
C          C    0.7885267228    0.2557813557    0.9967335028
C          C    0.7878827843    0.2291598636    0.9697111727
C          C    0.7620995530    0.2331436037    0.9423664368
C          C    0.7615293629    0.2067626729    0.9152827394
C          C    0.7355565369    0.2107938692    0.8879431977
C          C    0.7112604960    0.2397141151    0.8878348185
C          C    0.7116753214    0.2661820394    0.9149788006
C          C    0.7376750314    0.2623683497    0.9421455386
C          C    0.7383296800    0.2888186011    0.9691793757
C          C    0.7124885971    0.3199991891    0.9686706330
O          O    0.7161174408    0.3438056072    0.9915121734
N          N    0.6868356443    0.3211550406    0.9426198738
C          C    0.6852407823    0.2969001765    0.9152230541
O          O    0.6630478973    0.2985840509    0.8906757220
C          C    0.6603952268    0.3491771142    0.9436767930
C          C    0.6700332376    0.3856203879    0.9386337122
C          C    0.6435211071    0.4125353086    0.9378852348
X          X    0.8839724399    0.0840001068    0.9400067548
C          C    0.5973870911    0.3675124070    0.9485636012
C          C    0.6237701465    0.3404823171    0.9488465286
C          C    0.7876200379    0.1757621501    0.9154809881
O          O    0.7859276323    0.1537926418    0.8907201714
N          N    0.8119769389    0.1735365140    0.9427382284
C          C    0.8131611367    0.1975156514    0.9703000750
O          O    0.8334028262    0.1940691863    0.9963821301
C          C    0.8367487120    0.1439897865    0.9426078749
C          C    0.8627022309    0.1410273957    0.9150448805
C          C    0.8860707637    0.1113145356    0.9138109673
C          C    0.8580719702    0.0869427987    0.9676032920
C          C    0.8350382158    0.1168304994    0.9691844855
H          H    0.6155218430    0.3128844677    0.9525430706
H          H    0.8645583164    0.1611916487    0.8942358587
X          X    0.6069472617    0.4037829359    0.9430906402
H          H    0.5694902525    0.3603007815    0.9523252834
H          H    0.9055580707    0.1093460483    0.8923278437
H          H    0.8551303966    0.0664380088    0.9878648916
O          O    0.8115589634    0.1192217728    0.9971648214
H          H    0.8149665294    0.1410088429    0.0099676176
H          H    0.7341161234    0.1912102380    0.8665502178
H          H    0.6917383185    0.2415187286    0.8663591787
H          H    0.7659809939    0.3045971061    0.0177326441
H          H    0.8078620164    0.2538578347    0.0183058645
O          O    0.7050592380    0.3956240701    0.9350630195
H          H    0.7188829136    0.3871577188    0.9547797031
H          H    0.6519917588    0.4398279718    0.9330127560
C          C    0.1191506504    0.7013993793    0.2261984974
C          C    0.1184599309    0.7278832835    0.1992524858
C          C    0.1001283700    0.7607363334    0.2041469338
C          C    0.0826707879    0.7658282102    0.2372782723
C          C    0.0645507828    0.7986323729    0.2423138894
C          C    0.0469804479    0.8036062815    0.2755529106
C          C    0.0473998119    0.7769801907    0.3023403276
C          C    0.0654597958    0.7440143557    0.2973795426
C          C    0.0831890807    0.7390604498    0.2643690553
C          C    0.1014173885    0.7062946994    0.2593683621
C          C    0.1021306919    0.6780311993    0.2883669063
O          O    0.1208146393    0.6510247983    0.2835487886
N          N    0.0829529022    0.6837623852    0.3189841903
C          C    0.0654355426    0.7151832902    0.3258614301
O          O    0.0492532310    0.7212016096    0.3541429407
C          C    0.0811822618    0.6557772139    0.3454255359
C          C    0.1121459602    0.6446418193    0.3644961419
C          C    0.1095663550    0.6184836510    0.3916431948
X          X    0.0778586157    0.9035925106    0.1027412893
C          C    0.0454398998    0.6129848682    0.3803739146
C          C    0.0478380353    0.6394721938    0.3535514928
C          C    0.0641383873    0.8271378125    0.2135203963
O          O    0.0480846385    0.8554429057    0.2198227995
N          N    0.0816583958    0.8205083412    0.1820518596
C          C    0.0986876992    0.7889230126    0.1750929496
O          O    0.1122699939    0.7818316833    0.1456461814
C          C    0.0811871698    0.8478578408    0.1548774232
C          C    0.0984319171    0.8811239965    0.1610468104
C          C    0.0967680887    0.9086808265    0.1351949630
C          C    0.0606418754    0.8703380114    0.0965135316
C          C    0.0626798745    0.8426009637    0.1220641030
H          H    0.0236674241    0.6475444339    0.3396245246
H          H    0.1125972565    0.8860644874    0.1859062581
X          X    0.0762241171    0.6022079237    0.3996894630
H          H    0.0196550589    0.6010008704    0.3863670140
H          H    0.1098686426    0.9340804152    0.1405232998
H          H    0.0454214466    0.8654533236    0.0723451651
O          O    0.0469468955    0.8105059220    0.1141726836
H          H    0.0639629708    0.7915582080    0.1154520145
H          H    0.0327342990    0.8283896629    0.2806601735
H          H    0.0333777731    0.7820203874    0.3273113928
H          H    0.1335584326    0.6766568620    0.2211645930
H          H    0.1322645440    0.7227495079    0.1742325455
O          O    0.1451598360    0.6583727604    0.3566737673
H          H    0.1504873489    0.6554102232    0.3318874447
H          H    0.1336851292    0.6115085012    0.4061350614
C          C    0.2247551041    0.7041637652    0.0210447393
C          C    0.1995315362    0.7322882469    0.0219088177
C          C    0.2066864761    0.7648461630    0.0400227274
C          C    0.2402710792    0.7679231224    0.0570810475
C          C    0.2475613955    0.8004225072    0.0749820680
C          C    0.2812473711    0.8033754503    0.0921524990
C          C    0.3063068882    0.7751201474    0.0915622386
C          C    0.2990818129    0.7424549679    0.0737211856
C          C    0.2656233256    0.7395069883    0.0563891457
C          C    0.2583690193    0.7070432955    0.0383792492
C          C    0.2855291628    0.6770139074    0.0374782131
O          O    0.2788127300    0.6502848135    0.0189824008
N          N    0.3166647419    0.6808938021    0.0562817767
C          C    0.3256992951    0.7118946325    0.0735662514
O          O    0.3544872665    0.7161950403    0.0893994478
C          C    0.3413189985    0.6513129894    0.0578919197
C          C    0.3592955993    0.6388737510    0.0267704935
C          C    0.3847779616    0.6110754559    0.0291726329
X          X    0.1146965524    0.9138733236    0.0627315174
C          C    0.3739271840    0.6065630816    0.0934481088
C          C    0.3487915153    0.6346702826    0.0912221562
C          C    0.2206175749    0.8306792345    0.0755787234
O          O    0.2288663033    0.8586003357    0.0914214544
N          N    0.1885953149    0.8259631686    0.0584468062
C          C    0.1794745868    0.7948054073    0.0416520772
O          O    0.1494864940    0.7895180922    0.0284370840
C          C    0.1631954983    0.8549649409    0.0590897325
C          C    0.1712380260    0.8877060986    0.0416136279
C          C    0.1471848692    0.9168368358    0.0434331609
C          C    0.1065961801    0.8811473430    0.0801802171
C          C    0.1303330604    0.8518540726    0.0779908171
H          H    0.3356777237    0.6437013478    0.1155081295
H          H    0.1961930492    0.8910182698    0.0271452644
X          X    0.3921727644    0.5944669738    0.0625016344
H          H    0.3794547134    0.5943349473    0.1192223391
H          H    0.1539429073    0.9417971008    0.0301489993
H          H    0.0823465091    0.8778519412    0.0956955372
O          O    0.1206279425    0.8203833840    0.0939689071
H          H    0.1205208404    0.8013215960    0.0770326650
H          H    0.2880618241    0.8278491891    0.1062184974
H          H    0.3317049103    0.7786429460    0.1052773899
H          H    0.2180145555    0.6797255313    0.0068160935
H          H    0.1740813837    0.7286760310    0.0084120851
O          O    0.3519685478    0.6529298129    0.9937797937
H          H    0.3269854548    0.6515054124    0.9887462425
H          H    0.3985248544    0.6031040980    0.0049267512
C          C    0.7087238002    0.7620509375    0.1090414157
C          C    0.7342207891    0.7899349107    0.1096322358
C          C    0.7609528369    0.7929857262    0.0828850007
C          C    0.7608498004    0.7669114239    0.0555262676
C          C    0.7873340516    0.7700020842    0.0287151287
C          C    0.7872101470    0.7437334475    0.0013612897
C          C    0.7619251498    0.7156761191    0.0009802569
C          C    0.7353755798    0.7124195416    0.0278509383
C          C    0.7352821397    0.7386848411    0.0550297256
C          C    0.7087180849    0.7356682780    0.0817902126
C          C    0.6814120291    0.7057687151    0.0809871784
O          O    0.6570987283    0.7060648307    0.1035797752
N          N    0.6840783183    0.6802134310    0.0549512274
C          C    0.7086017277    0.6819957467    0.0278061879
O          O    0.7102517480    0.6597937859    0.0032647591
C          C    0.6599669959    0.6501558082    0.0557467558
C          C    0.6225957423    0.6546705177    0.0503206880
C          C    0.5996093920    0.6246955725    0.0493223411
X          X    0.8917489181    0.9082155938    0.0545762054
C          C    0.6504599318    0.5852170404    0.0605073519
C          C    0.6735829598    0.6150802583    0.0610414818
C          C    0.8144305031    0.8001241155    0.0292055927
O          O    0.8366769167    0.8014930319    0.0046730742
N          N    0.8129902639    0.8245429836    0.0564602096
C          C    0.7887949409    0.8223919468    0.0837734997
O          O    0.7891442016    0.8429041647    0.1098695697
C          C    0.8388324613    0.8531581137    0.0566084786
C          C    0.8384656748    0.8792841979    0.0290517532
C          C    0.8646775605    0.9065329651    0.0280996078
C          C    0.8921275419    0.8821447563    0.0821666217
C          C    0.8656926906    0.8552032591    0.0834639059
H          H    0.7020159601    0.6107208946    0.0650289955
H          H    0.8184535961    0.8783467869    0.0080352052
X          X    0.6132749335    0.5896787027    0.0546532750
H          H    0.6614160819    0.5585818707    0.0643702868
H          H    0.8641568912    0.9261148569    0.0066186092
H          H    0.9126324242    0.8820543537    0.1026403388
O          O    0.8662790822    0.8316064238    0.1114413697
H          H    0.8440995656    0.8319666950    0.1240166834
H          H    0.8070242054    0.7450209456    0.9801717116
H          H    0.7630551330    0.6961012446    0.9795064872
H          H    0.6887730049    0.7608540661    0.1301518328
H          H    0.7332333819    0.8093410719    0.1312041259
O          O    0.6078878898    0.6879808376    0.0466130721
H          H    0.6141605568    0.7028326421    0.0664019163
H          H    0.5714600339    0.6293178207    0.0441618640
C          C    0.1184185174    0.3003893330    0.7763511538
C          C    0.1177654973    0.2736741066    0.8030687897
C          C    0.0995141926    0.2408220368    0.7978768705
C          C    0.0820973411    0.2359738896    0.7646875842
C          C    0.0640576017    0.2031724015    0.7593551085
C          C    0.0465278190    0.1984428803    0.7260590529
C          C    0.0469090173    0.2252983044    0.6995009812
C          C    0.0648884273    0.2582619611    0.7047599583
C          C    0.0825774052    0.2629738037    0.7378274589
C          C    0.1007255661    0.2957374296    0.7431247798
C          C    0.1013988480    0.3242498123    0.7143699449
O          O    0.1200161173    0.3512569285    0.7194357908
N          N    0.0822610780    0.3187368874    0.6836876110
C          C    0.0648223922    0.2873357630    0.6765259624
O          O    0.0486787167    0.2815226123    0.6481795298
C          C    0.0804488355    0.3469433296    0.6574852804
C          C    0.1114033437    0.3583129409    0.6385383542
C          C    0.1087869772    0.3846966323    0.6116139773
X          X    0.0774861916    0.0970517127    0.8980357199
C          C    0.0446381759    0.3899509620    0.6228727006
C          C    0.0470741172    0.3632404884    0.6494694782
C          C    0.0636859650    0.1744205381    0.7879030969
O          O    0.0477031828    0.1461335515    0.7813442477
N          N    0.0811631400    0.1808206038    0.8194428638
C          C    0.0981133196    0.2123843217    0.8266871521
O          O    0.1116534896    0.2192544710    0.8562056663
C          C    0.0807314139    0.1532383655    0.8463817004
C          C    0.0980583761    0.1200660798    0.8399430975
C          C    0.0964356847    0.0922850989    0.8655565547
C          C    0.0601872124    0.1302119069    0.9045326164
C          C    0.0621833941    0.1581713801    0.8792223010
H          H    0.0229100841    0.3549936115    0.6633052462
H          H    0.1122567820    0.1153713175    0.8150549094
X          X    0.0754142456    0.4009638215    0.6036776118
H          H    0.0188309457    0.4019264161    0.6169594247
H          H    0.1095995511    0.0669623212    0.8600226284
H          H    0.0449344523    0.1348543563    0.9287283297
O          O    0.0463693996    0.1901613325    0.8873741939
H          H    0.0633427475    0.2091584567    0.8862723286
H          H    0.0323434490    0.1736713956    0.7207270665
H          H    0.0329204588    0.2204398628    0.6744751739
H          H    0.1327646786    0.3251209558    0.7816095789
H          H    0.1315363718    0.2786252039    0.8281440774
O          O    0.1444420280    0.3445915988    0.6462723304
H          H    0.1497410502    0.3473540157    0.6710878543
H          H    0.1329022019    0.3918511806    0.5972038921
C          C    0.2347083275    0.8979353666    0.7117821312
C          C    0.2101814887    0.8973210704    0.7405226656
C          C    0.2116989473    0.9229112868    0.7684898422
C          C    0.2388096604    0.9491468953    0.7662355530
C          C    0.2402600705    0.9748139538    0.7939646660
C          C    0.2675606243    0.0010376232    0.7916651745
C          C    0.2922756401    0.0014256158    0.7631045825
C          C    0.2909788745    0.9756952946    0.7352875405
C          C    0.2636630157    0.9496562182    0.7373782638
C          C    0.2621316844    0.9240464479    0.7095813683
C          C    0.2884435379    0.9248727652    0.6788038928
O          O    0.2841001850    0.9034558465    0.6538218814
N          N    0.3153192666    0.9496819365    0.6793061161
C          C    0.3178405882    0.9757186349    0.7049412681
O          O    0.3411972803    0.9992212859    0.7047949884
C          C    0.3421068618    0.9487590354    0.6516109477
C          C    0.3332799524    0.9560828013    0.6153496150
C          C    0.3602078969    0.9569019199    0.5888528024
X          X    0.1149104147    0.9498925214    0.9137169823
C          C    0.4050860009    0.9417670001    0.6338675406
C          C    0.3783073083    0.9414003041    0.6605047056
C          C    0.2137164444    0.9743184422    0.8245748833
O          O    0.2162451146    0.9978354795    0.8477950547
N          N    0.1880614365    0.9481895732    0.8250963909
C          C    0.1859381972    0.9219546208    0.7997335073
O          O    0.1644303283    0.8967384901    0.8015871548
C          C    0.1628729968    0.9480312343    0.8542885863
C          C    0.1382151242    0.9766297615    0.8583126585
C          C    0.1144780265    0.9774963381    0.8877450243
C          C    0.1395134089    0.9212621013    0.9097101900
C          C    0.1629023401    0.9200739936    0.8800812352
H          H    0.3859460123    0.9359305722    0.6879832876
H          H    0.1376590891    0.9984894648    0.8392102573
X          X    0.3963545944    0.9495071861    0.5978015801
H          H    0.4326587171    0.9363080166    0.6412388519
H          H    0.0960048753    0.9997679234    0.8905510660
H          H    0.1411743440    0.8998790891    0.9291945368
O          O    0.1850604421    0.8911497412    0.8765742642
H          H    0.1813837603    0.8796352663    0.8541221285
H          H    0.2697143362    0.0213268295    0.8123282485
H          H    0.3128209508    0.0219988010    0.7626469918
H          H    0.2324516242    0.8777352081    0.6909980618
H          H    0.1898164104    0.8766364244    0.7410964997
O          O    0.2986207639    0.9618349564    0.6050881539
H          H    0.2837480783    0.9424075820    0.6123614651
H          H    0.3523982734    0.9635401450    0.5617359035
C          C    0.7741457007    0.9102646811    0.7039933186
C          C    0.7997598532    0.9110418552    0.7317651148
C          C    0.7932707636    0.9294983550    0.7642701010
C          C    0.7599407682    0.9469902486    0.7676648917
C          C    0.7533129422    0.9652350770    0.8001149060
C          C    0.7198812568    0.9828393319    0.8033861680
C          C    0.6944326620    0.9823329063    0.7754791348
C          C    0.7009937200    0.9641475293    0.7428637486
C          C    0.7341960622    0.9463845065    0.7396018380
C          C    0.7407870512    0.9280315361    0.7071888771
C          C    0.7132101680    0.9272260810    0.6775389841
O          O    0.7193358397    0.9084390847    0.6508711210
N          N    0.6823609333    0.9464393914    0.6816893208
C          C    0.6739612042    0.9640772644    0.7126696001
O          O    0.6454288943    0.9802951047    0.7172324798
C          C    0.6573261143    0.9481177149    0.6524337150
C          C    0.6388049662    0.9171214732    0.6404906814
C          C    0.6129761461    0.9196159124    0.6130222252
X          X    0.8875572481    0.9522547506    0.9118476564
C          C    0.6245432522    0.9837161401    0.6078453011
C          C    0.6500317953    0.9814045505    0.6356259088
C          C    0.7806729523    0.9657406257    0.8299974975
O          O    0.7729993416    0.9819029852    0.8578993859
N          N    0.8124175745    0.9481813321    0.8249855944
C          C    0.8209072614    0.9310308596    0.7938432886
O          O    0.8506577709    0.9174084664    0.7882562459
C          C    0.8382172511    0.9487421432    0.8536339626
C          C    0.8304114419    0.9316247141    0.8866209731
C          C    0.8548807206    0.9333795091    0.9154070806
C          C    0.8954207672    0.9693441893    0.8788752572
C          C    0.8712610039    0.9672144125    0.8499253258
H          H    0.6635614455    0.0055986935    0.6442822460
H          H    0.8053303127    0.9174894915    0.8903878874
X          X    0.6057599807    0.9529008319    0.5962475951
H          H    0.6191622490    0.0094588003    0.5954860109
H          H    0.8483037202    0.9203764527    0.9405629636
H          H    0.9198095928    0.9845350239    0.8751262442
O          O    0.8807283121    0.9828236604    0.8181981391
H          H    0.8803694492    0.9657374784    0.7992737334
H          H    0.7135730192    0.9971803858    0.8278359795
H          H    0.6692534132    0.9963852940    0.7792355749
H          H    0.7803785581    0.8957621818    0.6795813208
H          H    0.8249926518    0.8972065192    0.7279168014
O          O    0.6459226178    0.8841555064    0.6547114026
H          H    0.6708210074    0.8788054364    0.6529887778
H          H    0.5988284672    0.8954779690    0.6054337301
C          C    0.8873816015    0.7256607577    0.8015464026
C          C    0.8864709913    0.6990790328    0.7747034425
C          C    0.9019829350    0.7047851344    0.7405545816
C          C    0.9185109297    0.7382541814    0.7346361131
C          C    0.9341769499    0.7439428363    0.7006946904
C          C    0.9506493200    0.7775943745    0.6948189788
C          C    0.9512482553    0.8042732114    0.7215504439
C          C    0.9355018417    0.7987225758    0.7555910025
C          C    0.9192589471    0.7651301510    0.7616141576
C          C    0.9036877226    0.7593874871    0.7956057942
C          C    0.9048032388    0.7879450387    0.8243019903
O          O    0.8931612964    0.7804025218    0.8544553578
N          N    0.9193580064    0.8205005340    0.8161563941
C          C    0.9356021072    0.8275339971    0.7840925953
O          O    0.9501857550    0.8564332438    0.7770157314
C          C    0.9179049912    0.8486977885    0.8423909767
C          C    0.9369463225    0.8461319402    0.8752129221
C          C    0.9367267591    0.8748268680    0.8997978672
X          X    0.9168227035    0.6048150354    0.5957350568
C          C    0.8974093858    0.9086751406    0.8600753858
C          C    0.8979612339    0.8802349757    0.8352233381
C          C    0.9334784827    0.7152746058    0.6720688261
O          O    0.9480578277    0.7218603087    0.6430396567
N          N    0.9170761268    0.6834057914    0.6795861925
C          C    0.9004585953    0.6766679006    0.7114376456
O          O    0.8832960705    0.6488723421    0.7173310699
C          C    0.9166603058    0.6562736529    0.6521938335
C          C    0.9491556930    0.6403609810    0.6406649116
C          C    0.9491805150    0.6148761598    0.6127187403
C          C    0.8843098934    0.6206645848    0.6072577033
C          C    0.8841472045    0.6457475311    0.6354915180
H          H    0.8833212695    0.8831079315    0.8103083283
H          H    0.9744524010    0.6479712272    0.6527155511
X          X    0.9167513885    0.9062969030    0.8925889553
H          H    0.8821928990    0.9326744359    0.8540021622
H          H    0.9743562833    0.6032142595    0.6040391486
H          H    0.8590173402    0.6142023124    0.5946816494
O          O    0.8519627607    0.6591297433    0.6466705336
H          H    0.8485161840    0.6547396364    0.6715512006
H          H    0.9630675167    0.7831835682    0.6691713236
H          H    0.9640723551    0.8297001530    0.7156692556
H          H    0.8751081174    0.7200109937    0.8272866111
H          H    0.8734598194    0.6737805526    0.7805014354
O          O    0.9553230905    0.8157571326    0.8841185463
H          H    0.9400303424    0.7953498888    0.8830244907
H          H    0.9523915363    0.8720811743    0.9240354059
C          C    0.2244556299    0.5914441890    0.2035041427
C          C    0.1991910223    0.5907376610    0.2315961683
C          C    0.2058332691    0.5718533013    0.2638232736
C          C    0.2389521633    0.5538595817    0.2666061590
C          C    0.2457354238    0.5351854823    0.2987786729
C          C    0.2789528100    0.5170792773    0.3014355758
C          C    0.3040463106    0.5175188403    0.2732077001
C          C    0.2973268421    0.5361342843    0.2408683615
C          C    0.2643411324    0.5543959076    0.2382194648
C          C    0.2575967135    0.5731772271    0.2060846311
C          C    0.2848000263    0.5739040177    0.1760896156
O          O    0.2786006294    0.5930527660    0.1496975159
N          N    0.3154238404    0.5542161703    0.1796424392
C          C    0.3239684678    0.5361393411    0.2103286788
O          O    0.3523236240    0.5194748038    0.2143547481
C          C    0.3400553204    0.5524912227    0.1500491264
C          C    0.3588603865    0.5833467403    0.1381856322
C          C    0.3842970304    0.5807759692    0.1103605616
X          X    0.1131319635    0.5488865455    0.4123693128
C          C    0.3717550366    0.5169024229    0.1046767125
C          C    0.3466600099    0.5192823246    0.1328076058
C          C    0.2187561871    0.5347530704    0.3290066207
O          O    0.2265563416    0.5181938872    0.3566394379
N          N    0.1872026100    0.5528087515    0.3245869866
C          C    0.1785590405    0.5704012126    0.2937349086
O          O    0.1489359097    0.5844985385    0.2886739810
C          C    0.1617668195    0.5523120123    0.3535600886
C          C    0.1702371155    0.5689725558    0.3866170132
C          C    0.1461162816    0.5672618548    0.4156983436
C          C    0.1046045531    0.5322546477    0.3793280326
C          C    0.1284191561    0.5343463393    0.3500907591
H          H    0.3329000453    0.4951919285    0.1413899336
H          H    0.1955627438    0.5827133012    0.3902033286
X          X    0.3908240329    0.5475697404    0.0931532451
H          H    0.3766109475    0.4912170239    0.0919852897
H          H    0.1531991850    0.5799077122    0.4408989314
H          H    0.0799563340    0.5174485224    0.3757398142
O          O    0.1183252364    0.5192039753    0.3183304929
H          H    0.1186842569    0.5364800645    0.2995792964
H          H    0.2853694777    0.5023963771    0.3256531683
H          H    0.3290694493    0.5030750318    0.2764931142
H          H    0.2181171068    0.6062870541    0.1793250378
H          H    0.1741100827    0.6049661639    0.2282173610
O          O    0.3523946199    0.6162593431    0.1528348399
H          H    0.3275547199    0.6219769832    0.1514900519
H          H    0.3986877966    0.6047903276    0.1028373430
C          C    0.3019806714    0.5905005064    0.7282845531
C          C    0.2772990597    0.5896656532    0.6996824105
C          C    0.2445296069    0.5707226864    0.7022614059
C          C    0.2376300127    0.5528048508    0.7348148523
C          C    0.2048965185    0.5340726209    0.7375400375
C          C    0.1981097110    0.5160428392    0.7702073809
C          C    0.2229481929    0.5166106208    0.7986576427
C          C    0.2558392564    0.5352847436    0.7960169312
C          C    0.2625886055    0.5534704995    0.7635779776
C          C    0.2952796090    0.5723099575    0.7608862785
C          C    0.3216045934    0.5731743309    0.7916514779
O          O    0.3485292468    0.5923691660    0.7887755461
N          N    0.3142591246    0.5535543818    0.8216373754
C          C    0.2827768125    0.5354272632    0.8262955740
O          O    0.2752418063    0.5188238664    0.8539629234
C          C    0.3405147237    0.5519597047    0.8498073929
C          C    0.3498512209    0.5828894483    0.8698727088
C          C    0.3742528828    0.5804468256    0.8986209051
X          X    0.1089007409    0.5471790693    0.5916384732
C          C    0.3816002998    0.5165557593    0.8870716699
C          C    0.3568525736    0.5188076485    0.8586243413
C          C    0.1783116244    0.5335026375    0.7069669521
O          O    0.1499491788    0.5168984332    0.7112673268
N          N    0.1866374601    0.5514901430    0.6761724782
C          C    0.2182977296    0.5691330377    0.6714383678
O          O    0.2270243164    0.5831685034    0.6426506920
C          C    0.1611029617    0.5508625957    0.6472888773
C          C    0.1272087002    0.5674669302    0.6514786773
C          C    0.1014035052    0.5656284423    0.6238892457
C          C    0.1427866253    0.5306032020    0.5873899635
C          C    0.1687843593    0.5328222816    0.6146942141
H          H    0.3501215339    0.4946631785    0.8439588064
H          H    0.1204309609    0.5812621398    0.6761122307
X          X    0.3905665894    0.5472971659    0.9073564675
H          H    0.3936297458    0.4909121943    0.8935594849
H          H    0.0754858222    0.5782330039    0.6277041186
H          H    0.1494829919    0.5157443060    0.5634315923
O          O    0.2015939423    0.5177290580    0.6087261107
H          H    0.2201156640    0.5350497038    0.6113982624
H          H    0.1733058825    0.5013194412    0.7735606344
H          H    0.2165635169    0.5022213912    0.8231068006
H          H    0.3267361482    0.6053839726    0.7250035278
H          H    0.2837841011    0.6038396529    0.6751882795
O          O    0.3360680791    0.6157516064    0.8615211623
H          H    0.3405219870    0.6214106442    0.8370332304
H          H    0.3798538986    0.6045143534    0.9137789129
C          C    0.2251908421    0.7954569235    0.4797668786
C          C    0.1999572581    0.7673411484    0.4789119423
C          C    0.2068947086    0.7349726532    0.4603788072
C          C    0.2402741024    0.7320744391    0.4428917844
C          C    0.2473494522    0.6997622813    0.4245705086
C          C    0.2808288861    0.6969892423    0.4069714661
C          C    0.3058951847    0.7252386501    0.4075559194
C          C    0.2988843678    0.7577172178    0.4258181734
C          C    0.2656343260    0.7604836391    0.4435760507
C          C    0.2585962751    0.7927589840    0.4620053923
C          C    0.2857668407    0.8227793142    0.4628939590
O          O    0.2792720866    0.8493153817    0.4817435027
N          N    0.3166766042    0.8190960759    0.4436827084
C          C    0.3255034747    0.7882761403    0.4259726651
O          O    0.3541010645    0.7841415543    0.4097549595
C          C    0.3413115998    0.8486936344    0.4420855442
C          C    0.3596573650    0.8608118223    0.4731180821
C          C    0.3851109011    0.8886351995    0.4707007599
X          X    0.1146333645    0.5861818382    0.4372256759
C          C    0.3734974723    0.8938108275    0.4066088039
C          C    0.3483884952    0.8656804053    0.4088426497
C          C    0.2203987983    0.6695114933    0.4239813653
O          O    0.2284571965    0.6417561694    0.4077540503
N          N    0.1885826010    0.6740480727    0.4415403528
C          C    0.1796637515    0.7050299861    0.4587633567
O          O    0.1498350716    0.7101784017    0.4723876412
C          C    0.1631753607    0.6450527564    0.4408995690
C          C    0.1714231744    0.6121332953    0.4579395965
C          C    0.1473485124    0.5830212724    0.4561050194
C          C    0.1063280349    0.6190858358    0.4202135803
C          C    0.1300908461    0.6483565393    0.4224234159
H          H    0.3349865942    0.8568999021    0.3846221630
H          H    0.1965481559    0.6086734882    0.4720754460
X          X    0.3921101008    0.9055877295    0.4374596700
H          H    0.3787190510    0.9063050433    0.3808984657
H          H    0.1542625457    0.5579255210    0.4690492947
H          H    0.0818959160    0.6225397422    0.4050223504
O          O    0.1201982884    0.6799900047    0.4068878412
H          H    0.1202934519    0.6988757447    0.4240202460
H          H    0.2874744072    0.6726626375    0.3925733302
H          H    0.3311282715    0.7218595117    0.3935043085
H          H    0.2186211507    0.8197463495    0.4943263968
H          H    0.1746694544    0.7708119530    0.4927467050
O          O    0.3527220313    0.8464150769    0.5060464849
H          H    0.3278005833    0.8477856752    0.5113909568
H          H    0.3991453247    0.8963565096    0.4948626868
C          C    0.7748565862    0.2052848978    0.5941070035
C          C    0.8000526313    0.2334415688    0.5935389633
C          C    0.7935211488    0.2655680590    0.5744456879
C          C    0.7605833252    0.2681832372    0.5560979314
C          C    0.7539088018    0.3002556729    0.5372136821
C          C    0.7208739918    0.3027441146    0.5187529797
C          C    0.6958521717    0.2744508931    0.5190564395
C          C    0.7024639568    0.2422112074    0.5378821081
C          C    0.7352654710    0.2397308246    0.5564957846
C          C    0.7418999436    0.2076964312    0.5754866797
C          C    0.7147701369    0.1776316583    0.5760632496
O          O    0.7208405917    0.1513400556    0.5953907227
N          N    0.6843427740    0.1810161070    0.5560439343
C          C    0.6759047310    0.2116001434    0.5377451949
O          O    0.6477132980    0.2154771203    0.5207704170
C          C    0.6598090066    0.1513492797    0.5541937927
C          C    0.6407165617    0.1395697131    0.5849046430
C          C    0.6153817598    0.1116652488    0.5821926391
X          X    0.8860616221    0.4142619167    0.5517889629
C          C    0.6286003019    0.1057369438    0.5184779390
C          C    0.6535946744    0.1339454743    0.5209942068
C          C    0.7808108760    0.3305540538    0.5369281304
O          O    0.7731096204    0.3580933275    0.5201680406
N          N    0.8121871671    0.3262981995    0.5553288120
C          C    0.8207296077    0.2955464830    0.5731449659
O          O    0.8502183003    0.2906268919    0.5875703637
C          C    0.8375498756    0.3553373109    0.5549684564
C          C    0.8288197402    0.3884435721    0.5713952666
C          C    0.8528798662    0.4175820765    0.5698069339
C          C    0.8948485303    0.3811715785    0.5353913194
C          C    0.8710910809    0.3518796186    0.5373644737
H          H    0.6675808646    0.1424597995    0.4970101932
H          H    0.8033436022    0.3920214593    0.5848571501
X          X    0.6092449919    0.0942958681    0.5489963768
H          H    0.6240445915    0.0929206740    0.4927995330
H          H    0.8455994844    0.4428183490    0.5822681315
H          H    0.9196583481    0.3775853200    0.5208571166
O          O    0.8814255715    0.3200809904    0.5224668746
H          H    0.8809371514    0.3014043541    0.5398203824
H          H    0.7145457415    0.3268801133    0.5038983581
H          H    0.6709715048    0.2776058821    0.5043400035
H          H    0.7811049360    0.1811878726    0.6091206020
H          H    0.8249935754    0.2301924054    0.6080411155
O          O    0.6468019200    0.1543795739    0.6178178817
H          H    0.6715846841    0.1531266669    0.6237982934
H          H    0.6007627860    0.1042079874    0.6060894430
C          C    0.7769815974    0.5157035022    0.2036727537
C          C    0.8022132744    0.5168526192    0.2317797544
C          C    0.7951651382    0.5354999980    0.2640585994
C          C    0.7616779906    0.5527929614    0.2668770911
C          C    0.7544932680    0.5712273546    0.2991006565
C          C    0.7209053679    0.5886311009    0.3017934449
C          C    0.6958392715    0.5877528470    0.2735514649
C          C    0.7029590721    0.5693762600    0.2411612145
C          C    0.7363185738    0.5518122891    0.2384758576
C          C    0.7434666755    0.5332697810    0.2062896382
C          C    0.7162979993    0.5320656888    0.1762785968
O          O    0.7229062256    0.5131276238    0.1498337288
N          N    0.6852698151    0.5511020216    0.1798732718
C          C    0.6763372019    0.5689070219    0.2106079118
O          O    0.6476398347    0.5849664904    0.2146681460
C          C    0.6606212525    0.5524014202    0.1502724385
C          C    0.6424672425    0.5211965751    0.1383089294
C          C    0.6169952985    0.5233196730    0.1104783923
X          X    0.8873012840    0.5599525851    0.4127190561
C          C    0.6282090108    0.5874566134    0.1049881077
C          C    0.6533353035    0.5855163411    0.1331248490
C          C    0.7814439317    0.5721317895    0.3293436514
O          O    0.7732885760    0.5884439311    0.3570208216
N          N    0.8133681336    0.5547491424    0.3248874294
C          C    0.8223896713    0.5374309479    0.2939884214
O          O    0.8523018281    0.5239675298    0.2889015063
C          C    0.8387749181    0.5556894867    0.3538749765
C          C    0.8306378529    0.5387593522    0.3868785915
C          C    0.8547046735    0.5408857319    0.4159772437
C          C    0.8954960398    0.5768552218    0.3797310309
C          C    0.8717433769    0.5743547609    0.3504754785
H          H    0.6665874660    0.6098623011    0.1417847906
H          H    0.8056017898    0.5244845248    0.3904115861
X          X    0.6097870596    0.5564334400    0.0933650391
H          H    0.6228258327    0.6130726827    0.0923694633
H          H    0.8478747940    0.5280213337    0.4411370303
H          H    0.9198326881    0.5921811150    0.3761989042
O          O    0.8815346932    0.5897969985    0.3187649070
H          H    0.8815435071    0.5725723610    0.2999630106
H          H    0.7141737671    0.6031061757    0.3260506239
H          H    0.6705197146    0.6016635325    0.2768662616
H          H    0.7836383792    0.5010667600    0.1794535534
H          H    0.8275861853    0.5031586681    0.2283722252
O          O    0.6496093164    0.4883826141    0.1528650135
H          H    0.6745633443    0.4831866597    0.1515162968
H          H    0.6031104082    0.4990335057    0.1028774525
C          C    0.7737917534    0.5903827914    0.7956917212
C          C    0.7994137668    0.5896130546    0.7679269700
C          C    0.7931014134    0.5708218538    0.7355793307
C          C    0.7599384963    0.5529875238    0.7323332342
C          C    0.7534854081    0.5344071304    0.7000387780
C          C    0.7202218605    0.5164605311    0.6969171579
C          C    0.6947679493    0.5169622500    0.7248194271
C          C    0.7011548246    0.5354839637    0.7572797534
C          C    0.7341875388    0.5535870706    0.7603906846
C          C    0.7406027712    0.5722749358    0.7926471751
C          C    0.7130177355    0.5730702727    0.8222897566
O          O    0.7189639107    0.5921391543    0.8487976944
N          N    0.6823517891    0.5535317322    0.8183026458
C          C    0.6741210506    0.5355539184    0.7874727761
O          O    0.6457436281    0.5190290259    0.7830477627
C          C    0.6573322116    0.5518641923    0.8475719036
C          C    0.6385181093    0.5827837986    0.8592528058
C          C    0.6127123891    0.5802775909    0.8867418943
X          X    0.8876076535    0.5477110112    0.5881975508
C          C    0.6248847362    0.5163356597    0.8924603799
C          C    0.6503519421    0.5186531760    0.8646607039
C          C    0.7808507588    0.5339076576    0.6701609750
O          O    0.7733319715    0.5174381320    0.6423968955
N          N    0.8124276399    0.5518080650    0.6750235883
C          C    0.8207529309    0.5693007380    0.7060195981
O          O    0.8503729774    0.5832505698    0.7114906582
C          C    0.8382331756    0.5512490164    0.6463804633
C          C    0.8302678392    0.5680123573    0.6132500587
C          C    0.8547543340    0.5662456773    0.5844793216
C          C    0.8956304335    0.5309760805    0.6213131068
C          C    0.8714498851    0.5331220238    0.6502444850
H          H    0.6641102596    0.4945157148    0.8562089686
H          H    0.8050544077    0.5818774473    0.6093642708
X          X    0.6058102536    0.5470689489    0.9037975020
H          H    0.6197466324    0.4906486903    0.9050369969
H          H    0.8480561853    0.5789728074    0.5592145275
H          H    0.9201615743    0.5160487662    0.6251899333
O          O    0.8810624617    0.5178718007    0.6821023253
H          H    0.8805409355    0.5351132214    0.7008815945
H          H    0.7140509588    0.5018542617    0.6725896048
H          H    0.6697229154    0.5026411580    0.7211824473
H          H    0.7798857541    0.6051494608    0.8199800984
H          H    0.8245143948    0.6037183954    0.7716576539
O          O    0.6453245986    0.6156941754    0.8447537145
H          H    0.6701711876    0.6212937982    0.8464305374
H          H    0.5983366657    0.6043439847    0.8941263134
C          C    0.7742280546    0.7952056066    0.4049168664
C          C    0.7995407035    0.7671595975    0.4057247364
C          C    0.7929041275    0.7349421235    0.4246275146
C          C    0.7597409625    0.7321204747    0.4425334444
C          C    0.7529638535    0.6999571013    0.4612255140
C          C    0.7197016632    0.6972613864    0.4792435150
C          C    0.6945591448    0.7254438540    0.4787029235
C          C    0.7012720033    0.7577740043    0.4600691438
C          C    0.7343029594    0.7604611226    0.4418950987
C          C    0.7410415887    0.7925866248    0.4230957458
C          C    0.7137869055    0.8225321318    0.4222601244
O          O    0.7199917699    0.8489135219    0.4030983937
N          N    0.6831155284    0.8189469281    0.4418678989
C          C    0.6745760506    0.7882660001    0.4599561737
O          O    0.6461824658    0.7842081754    0.4765474162
C          C    0.6584266480    0.8484981117    0.4434915202
C          C    0.6396852515    0.8602929572    0.4125710148
C          C    0.6141920433    0.8880754235    0.4150402617
X          X    0.8858068773    0.5865881513    0.4480178481
C          C    0.6265484240    0.8938541573    0.4789414648
C          C    0.6517000381    0.8657654751    0.4766624977
C          C    0.7799956857    0.6697779281    0.4617664086
O          O    0.7721993971    0.6421500239    0.4783356070
N          N    0.8115907923    0.6742334541    0.4437923567
C          C    0.8202275856    0.7050809467    0.4261885304
O          O    0.8498802420    0.7101788066    0.4121667880
C          C    0.8370767713    0.6453064385    0.4443919127
C          C    0.8287112476    0.6122155440    0.4277458740
C          C    0.8528791364    0.5831793277    0.4295559014
C          C    0.8942296218    0.6196634710    0.4646354159
C          C    0.8703687302    0.6488557449    0.4624450621
H          H    0.6654090845    0.8572350953    0.5008003275
H          H    0.8034298872    0.6085683829    0.4139397802
X          X    0.6075431884    0.9053087187    0.4482088220
H          H    0.6215993614    0.9065660209    0.5045989610
H          H    0.8458759570    0.5579517878    0.4169193844
H          H    0.9188306475    0.6233125335    0.4795050238
O          O    0.8803643513    0.6806511627    0.4775788613
H          H    0.8800193226    0.6993820709    0.4602804925
H          H    0.7132879136    0.6730490425    0.4939363428
H          H    0.6695023367    0.7221301176    0.4930817463
H          H    0.7805641679    0.8193791418    0.3900639038
H          H    0.8246545543    0.7705670746    0.3915612704
O          O    0.6462675007    0.8456179889    0.3796929957
H          H    0.6711205698    0.8470006783    0.3740420117
H          H    0.5998538794    0.8955456555    0.3909779452
C          C    0.4540104790    0.2265203162    0.7996454234
C          C    0.4531678551    0.1989887282    0.7737752965
C          C    0.4350154396    0.2033107781    0.7407429738
C          C    0.4178961423    0.2364821180    0.7348292737
C          C    0.3999564265    0.2409443979    0.7018435228
C          C    0.3827249410    0.2742271301    0.6960448482
C          C    0.3832941382    0.3016059649    0.7220595691
C          C    0.4011739057    0.2972227274    0.7552050037
C          C    0.4185665991    0.2641665009    0.7609791797
C          C    0.4366150994    0.2597372375    0.7939261947
C          C    0.4374928300    0.2893608589    0.8215291014
O          O    0.4560217154    0.2849792644    0.8487160813
N          N    0.4186319194    0.3200207117    0.8150258963
C          C    0.4013069072    0.3263496999    0.7833839076
O          O    0.3854201135    0.3546395950    0.7766591141
C          C    0.4170024857    0.3471051326    0.8423979409
C          C    0.4481024675    0.3661289920    0.8532293558
C          C    0.4456781681    0.3938851633    0.8787555059
X          X    0.4123477349    0.0989089288    0.6001251831
C          C    0.3814253576    0.3833514942    0.8842376313
C          C    0.3836726189    0.3559141151    0.8583743015
C          C    0.3993825167    0.2115174312    0.6739953690
O          O    0.3835030812    0.2173285083    0.6454875394
N          N    0.4165739998    0.1800426493    0.6814088973
C          C    0.4334095433    0.1736403662    0.7132150576
O          O    0.4466810217    0.1442345193    0.7210279872
C          C    0.4159521324    0.1522610072    0.6546794973
C          C    0.4333879621    0.1575111724    0.6213552213
C          C    0.4315870395    0.1310583207    0.5943835967
C          C    0.3949393988    0.0935998812    0.6334392444
C          C    0.3971108691    0.1197520872    0.6605994319
H          H    0.3594023270    0.3420374042    0.8505174719
H          H    0.4478101379    0.1821169299    0.6159132575
X          X    0.4123496443    0.4026137985    0.8947043929
H          H    0.3556513368    0.3898587046    0.8959742206
H          H    0.4448394048    0.1356852486    0.5689253733
H          H    0.3794690255    0.0696937282    0.6388053383
O          O    0.3811749319    0.1127395429    0.6927982357
H          H    0.3981265886    0.1142867110    0.7117836770
H          H    0.3686274953    0.2789061198    0.6710924542
H          H    0.3695319176    0.3265881145    0.7163966420
H          H    0.4682704145    0.2219122051    0.8245559853
H          H    0.4667118200    0.1739618993    0.7795319674
O          O    0.4810946161    0.3576849711    0.8398181319
H          H    0.4861728512    0.3329227970    0.8433631382
H          H    0.4699064162    0.4083022279    0.8855025362
C          C    0.4167052065    0.7841954782    0.1905637849
C          C    0.4155044217    0.8110408205    0.2171315762
C          C    0.4167832899    0.8025057926    0.2540753526
C          C    0.4194365596    0.7659029669    0.2631071546
C          C    0.4209250335    0.7573269100    0.2999044505
C          C    0.4234859764    0.7205657584    0.3088681796
C          C    0.4243419185    0.6937296415    0.2823016502
C          C    0.4227705294    0.7021945060    0.2453774622
C          C    0.4204441725    0.7388215826    0.2363438311
C          C    0.4190732941    0.7474172889    0.1995320499
C          C    0.4204411467    0.7185411684    0.1711674865
O          O    0.4219240762    0.7278233102    0.1393352263
N          N    0.4208961665    0.6835230626    0.1817305169
C          C    0.4230879830    0.6733995544    0.2168608210
O          O    0.4250326504    0.6417941192    0.2266202314
C          C    0.4192872670    0.6559009235    0.1548999632
C          C    0.4476060993    0.6508689894    0.1300170552
C          C    0.4464248866    0.6224744148    0.1051128490
X          X    0.4146718045    0.8999795631    0.4013212014
C          C    0.3881147717    0.6043707560    0.1283856651
C          C    0.3894305998    0.6324339209    0.1536344109
C          C    0.4199875718    0.7861762305    0.3283409283
O          O    0.4217907925    0.7768430609    0.3600940686
N          N    0.4174646616    0.8211419618    0.3177483788
C          C    0.4147795250    0.8311100953    0.2826843931
O          O    0.4098062149    0.8625194211    0.2731660759
C          C    0.4167016629    0.8483845736    0.3450233693
C          C    0.4470577151    0.8540514500    0.3671248634
C          C    0.4460073365    0.8796202143    0.3949744633
C          C    0.3843175226    0.8943783336    0.3792235478
C          C    0.3854593677    0.8692198312    0.3510797226
H          H    0.3674830465    0.6354318467    0.1724135841
H          H    0.4712428513    0.8384373782    0.3633384176
X          X    0.4165473540    0.5990829686    0.1038799797
H          H    0.3651617002    0.5865551441    0.1279957725
H          H    0.4694013237    0.8833651444    0.4118223547
H          H    0.3596160503    0.9089260998    0.3834462400
O          O    0.3560481155    0.8658783453    0.3295459068
H          H    0.3622319877    0.8698972098    0.3051367291
H          H    0.4247345603    0.7126803266    0.3367879574
H          H    0.4261564109    0.6659070580    0.2905591815
H          H    0.4156344836    0.7920893441    0.1626056539
H          H    0.4134562061    0.8388030652    0.2088863906
O          O    0.4762541129    0.6736297197    0.1290763637
H          H    0.4684617260    0.6977843531    0.1263646887
H          H    0.4690365184    0.6190728266    0.0872936032
C          C    0.6349672159    0.7605312311    0.7881186675
C          C    0.6355233835    0.7870158353    0.7611702309
C          C    0.6087483236    0.7886293764    0.7343408237
C          C    0.5813981646    0.7625902948    0.7358622591
C          C    0.5545594370    0.7642568226    0.7092782360
C          C    0.5272142560    0.7380247975    0.7108308693
C          C    0.5268677186    0.7113558352    0.7375766475
C          C    0.5537661080    0.7095271262    0.7642346845
C          C    0.5809364569    0.7357673633    0.7628994432
C          C    0.6077245889    0.7341790697    0.7895592563
C          C    0.6069586779    0.7057781711    0.8184218989
O          O    0.6295755884    0.7073766759    0.8426617400
N          N    0.5809283494    0.6801100285    0.8171489198
C          C    0.5537581154    0.6805745621    0.7925930661
O          O    0.5292222424    0.6583095746    0.7921545409
C          C    0.5817578411    0.6513813402    0.8428281751
C          C    0.5763678630    0.6578812965    0.8799109858
C          C    0.5754023238    0.6291746854    0.9044642917
X          X    0.5802708028    0.8967117942    0.5976142511
C          C    0.5865490252    0.5870433277    0.8557802344
C          C    0.5870502467    0.6156309558    0.8310968780
C          C    0.5550129165    0.7928909676    0.6806133533
O          O    0.5304576230    0.7930648355    0.6583506358
N          N    0.5822610463    0.8173592512    0.6807213925
C          C    0.6095993205    0.8165090688    0.7049691201
O          O    0.6356883722    0.8369805094    0.7034997430
C          C    0.5823740796    0.8445554410    0.6533896955
C          C    0.5548092806    0.8706564636    0.6523906982
C          C    0.5538219716    0.8964682215    0.6247638347
C          C    0.6078692627    0.8706653175    0.5985984471
C          C    0.6092018348    0.8451723770    0.6264312190
H          H    0.5910106020    0.6097624436    0.8029327802
H          H    0.5338131604    0.8707820262    0.6724457343
X          X    0.5807308685    0.5934802631    0.8926803209
H          H    0.5904095786    0.5598627809    0.8462562743
H          H    0.5323351694    0.9160442131    0.6242613226
H          H    0.6283223904    0.8694869747    0.5781066794
O          O    0.6371863315    0.8215854048    0.6270756016
H          H    0.6497838026    0.8231314676    0.6491914977
H          H    0.5060043704    0.7382479913    0.6909979751
H          H    0.5053991735    0.6917427585    0.7375141776
H          H    0.6560980485    0.7604058063    0.8080833513
H          H    0.6570899603    0.8064528613    0.7610992256
O          O    0.5726642352    0.6919276260    0.8928251427
H          H    0.5924419487    0.7064290915    0.8857491157
H          H    0.5702686359    0.6352902637    0.9323323277
loop_
