data_placed_structure
_audit_creation_date              2025-02-10
_audit_creation_method            'MOFbuilder_1.0'
_symmetry_space_group_name_H-M    'P1'
_symmetry_Int_Tables_number       1
_symmetry_cell_setting            triclinic
loop_
_symmetry_equiv_pos_as_xyz
  x,y,z
_cell_length_a                    37.23598
_cell_length_b                    37.23597
_cell_length_c                    37.23597
_cell_angle_alpha                 90.0
_cell_angle_beta                  90.0
_cell_angle_gamma                 90.0
loop_
_atom_site_label
_atom_site_type_symbol
_atom_site_fract_x
_atom_site_fract_y
_atom_site_fract_z
O          O    0.0491336661   -0.0666609205   -0.0665759522
O          O    0.0927032896   -0.0296633324   -0.0291562003
X          X    0.0838463120   -0.0533620626   -0.0576834372
O          O   -0.0483560583    0.0662209139   -0.0675849170
O          O   -0.0923555090    0.0294648745   -0.0304315408
X          X   -0.0831706644    0.0529800303   -0.0590076188
O          O    0.0482834214    0.0668382842   -0.0670229417
O          O    0.0923191905    0.0306446479   -0.0293576255
X          X    0.0831622453    0.0540426292   -0.0580403642
O          O   -0.0475058135   -0.0672782909   -0.0671379275
O          O   -0.0919714098   -0.0308431058   -0.0302301156
X          X   -0.0824865977   -0.0544246616   -0.0586506919
Zr        Zr    0.0005459544   -0.0449372590   -0.0445176957
O          O    0.0008518414   -0.0414740050   -0.1009238885
O          O   -0.0037326220   -0.1020644804   -0.0431329741
Zr        Zr   -0.0000245864    0.0446428245   -0.0448153879
O          O    0.0054708460    0.0443567012   -0.1018623273
O          O   -0.0064108453    0.1011232349   -0.0404057002
O          O    0.0329372759    0.0000374658   -0.0517948206
O          O   -0.0323304925   -0.0003794900   -0.0521743640
O          O   -0.0482887923   -0.0668383185    0.0670229105
O          O   -0.0923191905   -0.0306446479    0.0293576255
X          X   -0.0831676162   -0.0540426635    0.0580403330
O          O    0.0475004426    0.0672782566    0.0671378963
O          O    0.0919714098    0.0308431058    0.0302301156
X          X    0.0824812268    0.0544246273    0.0586506607
O          O   -0.0491390370    0.0666608862    0.0665759210
O          O   -0.0927032896    0.0296633324    0.0291562003
X          X   -0.0838516829    0.0533620283    0.0576834060
O          O    0.0483506873   -0.0662209482    0.0675848858
O          O    0.0923555090   -0.0294648745    0.0304315408
X          X    0.0831652935   -0.0529800646    0.0590075876
Zr        Zr    0.0000245864   -0.0446428245    0.0448153879
O          O    0.0044602644   -0.0435375714    0.1019746572
O          O    0.0015190582   -0.1014928301    0.0414753552
Zr        Zr   -0.0005459544    0.0449372590    0.0445176957
O          O   -0.0023660367    0.0443306921    0.1013899961
O          O    0.0010424696    0.1019231587    0.0394398338
Zr        Zr    0.0535805840    0.0003422935    0.0003115804
Zr        Zr   -0.0535859550   -0.0003423278   -0.0003116116
O          O   -0.0329372759   -0.0000374658    0.0517948206
O          O    0.0323304925    0.0003794900    0.0521743640
O          O   -0.0325866637   -0.0523183639   -0.0000185141
O          O    0.0325866637    0.0523183639    0.0000185141
O          O    0.0332504252   -0.0518977711    0.0003643399
O          O   -0.0332504252    0.0518977711   -0.0003643399
H          H   -0.0479250809   -0.0005607453   -0.0775698396
H          H    0.0487342721    0.0773232330    0.0000302089
H          H   -0.0488271886   -0.0000573456    0.0770072084
H          H    0.0497152172   -0.0766942996    0.0005422920
H          H    0.0171288035    0.1124959927   -0.0357615051
H          H   -0.0210394211    0.1099394501    0.0269855700
H          H    0.0160051554    0.0271220148    0.1099321400
H          H   -0.0155203911   -0.0295423873    0.1123314572
H          H   -0.0191199969   -0.1096731382    0.0268470947
H          H    0.0164478155   -0.1122033532   -0.0292713712
H          H    0.0207723459   -0.0256834225   -0.1087193522
H          H   -0.0138823741    0.0296986875   -0.1125035071
H          H    0.0001949288   -0.0683180065    0.1108074268
H          H    0.0004696608   -0.1109099103   -0.0679163316
H          H    0.0004274365    0.0690423901   -0.1105572235
H          H   -0.0011307703    0.1120401035    0.0639782424
O          O    0.0474976770    0.4327224500    0.4328594391
O          O    0.0919701576    0.4691563211    0.4697666596
X          X    0.0824788657    0.4455754725    0.4413459266
O          O   -0.0482898609    0.5668402324    0.4329797681
O          O   -0.0923196412    0.5306463849    0.4706456054
X          X   -0.0831685900    0.5540448431    0.4419630920
O          O    0.0483495949    0.5662216527    0.4324150230
O          O    0.0923550126    0.5294643004    0.4695663969
X          X    0.0831642786    0.5529801626    0.4409910700
O          O   -0.0491417787    0.4333410298    0.4334241843
O          O   -0.0927044962    0.4703384055    0.4708458681
X          X   -0.0838540029    0.4466401530    0.4423179486
Zr        Zr   -0.0005477923    0.4550636142    0.4554814456
O          O   -0.0008552452    0.4585279696    0.3990753288
O          O   -0.0055401529    0.3979956498    0.4569191073
Zr        Zr    0.0000238712    0.5446436962    0.4551854800
O          O    0.0048497681    0.5442926761    0.3980783663
O          O   -0.0055877271    0.6012007426    0.4596662030
O          O    0.0323289987    0.4996211170    0.4478247060
O          O   -0.0329387535    0.5000388895    0.4482061201
O          O   -0.0483549658    0.4337783817    0.5675850084
O          O   -0.0923550126    0.4705356996    0.5304336031
X          X   -0.0831696495    0.4470198718    0.5590089614
O          O    0.0491364078    0.5666590046    0.5665758471
O          O    0.0927044962    0.5296615945    0.5291541319
X          X    0.0838486319    0.5533598814    0.5576820827
O          O   -0.0475030480    0.5672775844    0.5671405923
O          O   -0.0919701576    0.5308436789    0.5302333404
X          X   -0.0824842367    0.5544245619    0.5586541048
O          O    0.0482844899    0.4331598019    0.5670202632
O          O    0.0923196412    0.4693536151    0.5293543946
X          X    0.0831632191    0.4459551913    0.5580369393
Zr        Zr   -0.0000238712    0.4553563038    0.5448145200
O          O    0.0050916402    0.4563993749    0.6019181312
O          O    0.0007044159    0.3984921492    0.5414604294
Zr        Zr    0.0005477923    0.5449363858    0.5445185544
O          O   -0.0006167569    0.5443478040    0.6014082422
O          O    0.0028055413    0.6018977891    0.5394193737
Zr        Zr    0.0535805708    0.4996570360    0.4996868839
Zr        Zr   -0.0535859417    0.5003429984    0.5003131475
O          O   -0.0323289987    0.5003788830    0.5521752940
O          O    0.0329387535    0.4999611105    0.5517938799
O          O   -0.0332510702    0.4481026417    0.5003642790
O          O    0.0332510702    0.5518973583    0.4996357210
O          O    0.0325860024    0.4476812250    0.4999795379
O          O   -0.0325860024    0.5523187750    0.5000204621
H          H   -0.0488293854    0.5000594606    0.4229941862
H          H    0.0497161702    0.5766936824    0.4994577816
H          H   -0.0479228602    0.5005598411    0.5775712181
H          H    0.0487332947    0.4226761522    0.4999668958
H          H    0.0181479788    0.6122711041    0.4640350232
H          H   -0.0193157189    0.6101969824    0.5272229502
H          H    0.0176311966    0.5269047971    0.6097365795
H          H   -0.0145863072    0.4706479591    0.6125063945
H          H   -0.0202066984    0.3905778204    0.5270742301
H          H    0.0146692012    0.3875982327    0.4705450590
H          H    0.0191733337    0.4740632450    0.3910472849
H          H   -0.0148120622    0.5298843535    0.3876643437
H          H    0.0006130127    0.4316746831    0.6108013949
H          H   -0.0017405431    0.3890995306    0.4320889310
H          H    0.0000214400    0.5690416590    0.3894414957
H          H    0.0010480757    0.6120393943    0.5639808924
O          O    0.5482792374   -0.0670394964    0.4331795384
O          O    0.5923172814   -0.0307389150    0.4707333652
X          X    0.5831588102   -0.0542180052    0.4421198396
O          O    0.4524958729    0.0670803099    0.4326588626
O          O    0.4080293511    0.0307539836    0.4696785585
X          X    0.4175146738    0.0542541917    0.4411884720
O          O    0.5491353362    0.0664604128    0.4332208719
O          O    0.5927040193    0.0295693818    0.4707525388
X          X    0.5838475553    0.0531872439    0.4421557853
O          O    0.4516397741   -0.0664195994    0.4326175291
O          O    0.4076426132   -0.0295543132    0.4696593848
X          X    0.4168259287   -0.0531510573    0.4411525264
Zr        Zr    0.4999726217   -0.0447774334    0.4553182224
O          O    0.5003240889   -0.0411120782    0.3989250674
O          O    0.4949642145   -0.1018499865    0.4564940786
Zr        Zr    0.5005470645    0.0448031147    0.4553482026
O          O    0.5060397474    0.0446554396    0.3983004720
O          O    0.4948831027    0.1013440279    0.4599645962
O          O    0.5329362959   -0.0001940618    0.4482049062
O          O    0.4676685385    0.0002246004    0.4478253398
O          O    0.4508592929   -0.0664603784    0.5667790969
O          O    0.4072959807   -0.0295693818    0.5292474612
X          X    0.4161470737   -0.0531872094    0.5578441835
O          O    0.5483548549    0.0664196338    0.5673824397
O          O    0.5923573868    0.0295543132    0.5303406152
X          X    0.5831687004    0.0531510918    0.5588474424
O          O    0.4517153917    0.0670395309    0.5668204304
O          O    0.4076827186    0.0307389150    0.5292666348
X          X    0.4168358189    0.0542180396    0.5578801291
O          O    0.5474987561   -0.0670802755    0.5673411062
O          O    0.5919706489   -0.0307539836    0.5303214415
X          X    0.5824799552   -0.0542541573    0.5588114967
Zr        Zr    0.4994529355   -0.0448031147    0.5446517974
O          O    0.5039010186   -0.0439637235    0.6018146250
O          O    0.5002207604   -0.1016549806    0.5411038122
Zr        Zr    0.5000273783    0.0447774334    0.5446817776
O          O    0.4981983399    0.0439861611    0.6015515207
O          O    0.5023441344    0.1017565687    0.5398123507
Zr        Zr    0.5535805750   -0.0003436944    0.5003115992
Zr        Zr    0.4464140541    0.0003437288    0.4996883695
O          O    0.4670637041    0.0001940618    0.5517950938
O          O    0.5323314615   -0.0002246004    0.5521746602
O          O    0.4667473135   -0.0518971798    0.4997908697
O          O    0.5332526865    0.0518971798    0.5002091303
O          O    0.5325843913   -0.0523194940    0.5001737469
O          O    0.4674156087    0.0523194940    0.4998262531
H          H    0.4520735110    0.0003355658    0.4224297294
H          H    0.5497185648    0.0766934125    0.5003119144
H          H    0.4511742358    0.0002850547    0.5770076053
H          H    0.5487309078   -0.0773249200    0.5002606211
H          H    0.5185660745    0.1123979314    0.4646498175
H          H    0.4803668003    0.1100999362    0.5273879988
H          H    0.5163478829    0.0265129562    0.6100302412
H          H    0.4841006224   -0.0297522837    0.6122230050
H          H    0.4794791858   -0.1095172705    0.5264462026
H          H    0.5150130884   -0.1122965927    0.4703180401
H          H    0.5204449722   -0.0255489834    0.3911869555
H          H    0.4865010159    0.0302849986    0.3876061935
H          H    0.4993191007   -0.0687197606    0.6105567941
H          H    0.4990536892   -0.1106576944    0.4316784364
H          H    0.5013124662    0.0694352106    0.3896960429
H          H    0.5002997941    0.1118106417    0.5643876498
O          O    0.5483533914    0.4335789977   -0.0673821410
O          O    0.5923567266    0.4704452909   -0.0303422389
X          X    0.5831674071    0.4468478408   -0.0588483061
O          O    0.4508574297    0.5664587193   -0.0667793769
O          O    0.4072951633    0.5295684331   -0.0292458292
X          X    0.4161454735    0.5531856435   -0.0578433035
O          O    0.5474968770    0.5670789052   -0.0673437965
O          O    0.5919698010    0.5307535869   -0.0303244155
X          X    0.5824783276    0.5542530885   -0.0588147652
O          O    0.4517139440    0.4329588118   -0.0668177215
O          O    0.4076820889    0.4692601371   -0.0292636526
X          X    0.4168345529    0.4457803959   -0.0578768445
Zr        Zr    0.5000264101    0.4552215592   -0.0446807686
O          O    0.4996735331    0.4588856417   -0.1010739975
O          O    0.4957647702    0.3980895562   -0.0434496071
Zr        Zr    0.4994516885    0.5448021062   -0.0446527940
O          O    0.5042805515    0.5447193755   -0.1017606759
O          O    0.4931168930    0.6012661392   -0.0399677378
O          O    0.5323301670    0.5002235248   -0.0521754669
O          O    0.4670624205    0.4998046675   -0.0517942727
O          O    0.4524977521    0.4329210603    0.0673438278
O          O    0.4080301990    0.4692464131    0.0303244155
X          X    0.4175163014    0.4457468770    0.0588147966
O          O    0.5482806850    0.5670411537    0.0668177528
O          O    0.5923179111    0.5307398629    0.0292636526
X          X    0.5831600761    0.5542195697    0.0578768758
O          O    0.4516412377    0.5664209678    0.0673821724
O          O    0.4076432734    0.5295547091    0.0303422389
X          X    0.4168272220    0.5531521247    0.0588483375
O          O    0.5491371994    0.4335412462    0.0667794082
O          O    0.5927048367    0.4704315669    0.0292458292
X          X    0.5838491556    0.4468143220    0.0578433349
Zr        Zr    0.5005483115    0.4551978938    0.0446527940
O          O    0.5056511867    0.4560998445    0.1017599391
O          O    0.5020041480    0.3983602154    0.0410931230
Zr        Zr    0.4999735899    0.5447784408    0.0446807686
O          O    0.4988177944    0.5439692921    0.1015679253
O          O    0.5015021333    0.6017821383    0.0397876543
Zr        Zr    0.5535805661    0.5003438545   -0.0003129356
Zr        Zr    0.4464140629    0.4996561110    0.0003129669
O          O    0.4676698330    0.4997764752    0.0521754669
O          O    0.5329375795    0.5001953325    0.0517942727
O          O    0.4674157763    0.4476804083    0.0001757346
O          O    0.5325842237    0.5523195917   -0.0001757346
O          O    0.5332528432    0.4481029192   -0.0002087847
O          O    0.4667471568    0.5518970808    0.0002087847
H          H    0.4511723273    0.4997130566   -0.0770063881
H          H    0.5487306601    0.5773250661   -0.0002635729
H          H    0.4520754355    0.4996660337    0.0775714665
H          H    0.5497187964    0.4233067356   -0.0003114179
H          H    0.5167090774    0.6126234633   -0.0355582870
H          H    0.4792762403    0.6098416210    0.0276207349
H          H    0.5172876321    0.5267312259    0.1098336170
H          H    0.4857927249    0.4700570677    0.1123991353
H          H    0.4811957386    0.3902310138    0.0266778458
H          H    0.5161057923    0.3879023998   -0.0298608066
H          H    0.5195015123    0.4747048736   -0.1090452829
H          H    0.4848045045    0.5300983775   -0.1122272517
H          H    0.5014894971    0.4312879046    0.1105536213
H          H    0.4996774186    0.3893326336   -0.0683116889
H          H    0.4991357416    0.5694356147   -0.1103081251
H          H    0.4996155184    0.6118115411    0.0643856380
C          C    0.1220784124    0.2289260188    0.2984899049
C          C    0.1212731484    0.2014813954    0.2725263532
C          C    0.1014991937    0.2051372706    0.2403557159
C          C    0.0827193797    0.2375577763    0.2353949349
C          C    0.0631537423    0.2413627890    0.2032621978
C          C    0.0442622720    0.2738892876    0.1984219308
C          C    0.0448076560    0.3011689111    0.2245411763
C          C    0.0643171588    0.2974396674    0.2568365428
C          C    0.0833586708    0.2651465370    0.2616464823
C          C    0.1030297361    0.2613793687    0.2937358908
C          C    0.1038569539    0.2909090417    0.3214408350
O          O    0.1237490813    0.2872320022    0.3477549464
N          N    0.0834209246    0.3207471983    0.3159540074
C          C    0.0644481266    0.3264387257    0.2851470762
O          O    0.0470728214    0.3540388596    0.2792936518
C          C    0.0818450032    0.3476323159    0.3435249461
C          C    0.1125470209    0.3679448412    0.3530760233
C          C    0.1100666480    0.3954735863    0.3788419419
X          X    0.0771184330    0.1003816370    0.1002886972
C          C    0.0466354610    0.3821453857    0.3871050636
C          C    0.0489103850    0.3549287305    0.3610119574
C          C    0.0626103679    0.2120436717    0.1752999105
O          O    0.0452421818    0.2172686069    0.1475570271
N          N    0.0814558277    0.1813155982    0.1817654733
C          C    0.0999505641    0.1755290201    0.2127576787
O          O    0.1148121220    0.1466965797    0.2198076644
C          C    0.0808434363    0.1536339579    0.1549323046
C          C    0.0965363280    0.1597600856    0.1208987402
C          C    0.0946790744    0.1333558063    0.0938833768
C          C    0.0614550662    0.0941979122    0.1343105042
C          C    0.0637035101    0.1203171748    0.1614961175
H          H    0.0249353868    0.3400431888    0.3541592161
H          H    0.1096276867    0.1849879198    0.1149632405
X          X    0.0771356119    0.4026898913    0.3963009905
H          H    0.0211527265    0.3874855413    0.4000087240
H          H    0.1065734835    0.1386484086    0.0678897969
H          H    0.0472839833    0.0696238917    0.1402206229
O          O    0.0495335282    0.1124995589    0.1943288658
H          H    0.0672308291    0.1147082230    0.2125532095
H          H    0.0288796940    0.2780470246    0.1741455558
H          H    0.0297427169    0.3255524807    0.2196356302
H          H    0.1376182502    0.2248462910    0.3227176944
H          H    0.1361263495    0.1770433795    0.2775349641
O          O    0.1452429928    0.3609887507    0.3381686251
H          H    0.1515368937    0.3364566772    0.3413443114
H          H    0.1339269945    0.4109013283    0.3845909267
C          C    0.2236349708    0.2971674149   -0.0200832536
C          C    0.1986876258    0.2687963580   -0.0209045888
C          C    0.2057389528    0.2366782722   -0.0398263264
C          C    0.2389339994    0.2342965627   -0.0577371020
C          C    0.2461251690    0.2022342738   -0.0764481140
C          C    0.2794175896    0.1999798338   -0.0944708987
C          C    0.3041930227    0.2284852858   -0.0939167479
C          C    0.2970639318    0.2607152028   -0.0752639372
C          C    0.2640028538    0.2629639535   -0.0570851358
C          C    0.2568506625    0.2949888119   -0.0382668658
C          C    0.2837152785    0.3252843457   -0.0374168895
O          O    0.2771712459    0.3515722829   -0.0182395591
N          N    0.3144284571    0.3221078356   -0.0570296997
C          C    0.3233627098    0.2915503522   -0.0751362468
O          O    0.3518047261    0.2878700469   -0.0917325712
C          C    0.3387323343    0.3519772401   -0.0586389388
C          C    0.3573226387    0.3639963079   -0.0277135678
C          C    0.3824535965    0.3921080413   -0.0301695164
X          X    0.1147630885    0.0871467066   -0.0632918940
C          C    0.3700166812    0.3977624818   -0.0940662151
C          C    0.3452312351    0.3693490905   -0.0918007537
C          C    0.2194864429    0.1717078128   -0.0770035181
O          O    0.2276381844    0.1441926090   -0.0935891810
N          N    0.1878381676    0.1757435340   -0.0590238452
C          C    0.1788043991    0.2064665821   -0.0414016423
O          O    0.1490896755    0.2111719843   -0.0273741031
C          C    0.1627289403    0.1464891813   -0.0596373503
C          C    0.1715241226    0.1134999828   -0.0430109425
C          C    0.1477341620    0.0841541977   -0.0448351097
C          C    0.1059108951    0.1201195743   -0.0798898340
C          C    0.1293919028    0.1496172118   -0.0776852217
H          H    0.3316312890    0.3606555494   -0.1159420870
H          H    0.1968520543    0.1101727567   -0.0292093977
X          X    0.3888751904    0.4094448179   -0.0633289260
H          H    0.3747979793    0.4105519305   -0.1197169655
H          H    0.1550648425    0.0590123208   -0.0322136200
H          H    0.0812631045    0.1234581168   -0.0947549582
O          O    0.1189836986    0.1812890710   -0.0927999671
H          H    0.1190879064    0.2000130639   -0.0754909879
H          H    0.2861428654    0.1758609317   -0.1091781146
H          H    0.3292891371    0.2255045318   -0.1082999035
H          H    0.2169878442    0.3212484263   -0.0052159327
H          H    0.1735332366    0.2718702280   -0.0067367311
O          O    0.3509344777    0.3492186706    0.0051567483
H          H    0.3260661788    0.3502761286    0.0108109491
H          H    0.3966963308    0.3997497153   -0.0061043606
C          C    0.2768119680    0.2975979661    0.5208647185
C          C    0.3017494751    0.2692187881    0.5217040527
C          C    0.2944755358    0.2369168489    0.5402242938
C          C    0.2610699731    0.2343612715    0.5577147751
C          C    0.2536587039    0.2021172037    0.5760232004
C          C    0.2201544344    0.1996877953    0.5936257693
C          C    0.1953856415    0.2281987285    0.5930569518
C          C    0.2027341343    0.2606098483    0.5748076287
C          C    0.2360089333    0.2630351129    0.5570462545
C          C    0.2433825048    0.2952428075    0.5386297529
C          C    0.2165280881    0.3255467603    0.5377578772
O          O    0.2232981566    0.3520213708    0.5189187909
N          N    0.1855840237    0.3221795656    0.5569719020
C          C    0.1764368934    0.2914462658    0.5746699810
O          O    0.1477997347    0.2876047914    0.5908899420
C          C    0.1612609435    0.3520331148    0.5585852186
C          C    0.1430390195    0.3643563398    0.5275604608
C          C    0.1178789527    0.3924440356    0.5299932904
X          X    0.3851748287    0.0871568776    0.5633006706
C          C    0.1295547520    0.3974700516    0.5940858216
C          C    0.1543670843    0.3690788618    0.5918363853
C          C    0.2802907638    0.1715852403    0.5765955850
O          O    0.2719439951    0.1439089633    0.5928121408
N          N    0.3121503852    0.1757955145    0.5590340611
C          C    0.3213912542    0.2066896092    0.5418230779
O          O    0.3512704194    0.2115308339    0.5281967987
C          C    0.3372522875    0.1465351148    0.5596588415
C          C    0.3286574287    0.1137112741    0.5426058721
C          C    0.3524257651    0.0843476335    0.5444245834
C          C    0.3938270342    0.1199646647    0.5803256933
C          C    0.3703721442    0.1494838685    0.5781317476
H          H    0.1676794841    0.3601479047    0.6160512192
H          H    0.3034956234    0.1105211800    0.5284720810
X          X    0.1110624256    0.4094547296    0.5632426269
H          H    0.1244679739    0.4100072757    0.6198022464
H          H    0.3452472069    0.0593313256    0.5314705302
H          H    0.4182960971    0.1231556695    0.5955149598
O          O    0.3805979672    0.1810051854    0.5936794817
H          H    0.3806984976    0.1998982492    0.5765551843
H          H    0.2132561672    0.1754260205    0.6080144164
H          H    0.1701204266    0.2250783131    0.6071106680
H          H    0.2836339978    0.3218234287    0.5063146840
H          H    0.3270703946    0.2724301975    0.5078672162
O          O    0.1498185252    0.3499018249    0.4946249155
H          H    0.1747522454    0.3510133347    0.4892775207
H          H    0.1039229669    0.4003224649    0.5058366516
C          C    0.3795401046    0.2280508984    0.2006151496
C          C    0.3803652123    0.2006248716    0.2265977222
C          C    0.3993024342    0.2047186790    0.2592159227
C          C    0.4172247386    0.2375542302    0.2646008593
C          C    0.4359512564    0.2417924366    0.2971763138
C          C    0.4539855484    0.2747365090    0.3024433216
C          C    0.4534275147    0.3020034935    0.2763111490
C          C    0.4347591488    0.2978423473    0.2435743860
C          C    0.4165689162    0.2651281834    0.2383341664
C          C    0.3977351682    0.2609254170    0.2057995815
C          C    0.3968812351    0.2904359083    0.1780750164
O          O    0.3776909870    0.2863167757    0.1513090500
N          N    0.4165051123    0.3207270825    0.1840248390
C          C    0.4346270987    0.3268382560    0.2152606317
O          O    0.4512339771    0.3548226849    0.2215067933
C          C    0.4181097550    0.3476479938    0.1564905078
C          C    0.3871853485    0.3672636097    0.1462267684
C          C    0.3896376885    0.3948479723    0.1205177121
X          X    0.4228007570    0.1005053141    0.3998371779
C          C    0.4535280748    0.3829594287    0.1137267887
C          C    0.4512664561    0.3556916377    0.1397676113
C          C    0.4365107847    0.2124859640    0.3251515349
O          O    0.4531103837    0.2180951672    0.3532871277
N          N    0.4185193924    0.1813413120    0.3182602481
C          C    0.4008816499    0.1751459682    0.2868503082
O          O    0.3868427282    0.1459866875    0.2794663485
C          C    0.4191369830    0.1536737464    0.3451078098
C          C    0.4025269876    0.1594348153    0.3787678442
C          C    0.4043556971    0.1330723832    0.4058259892
C          C    0.4393822733    0.0946859923    0.3661882306
C          C    0.4371729580    0.1207546795    0.3389509138
H          H    0.4754070424    0.3413502129    0.1471767663
H          H    0.3887348734    0.1843586973    0.3843923557
X          X    0.4227919741    0.4028114389    0.1038227095
H          H    0.4791750587    0.3888776614    0.1014142665
H          H    0.3917469152    0.1380880731    0.4315362258
H          H    0.4542381781    0.0704401622    0.3606138797
O          O    0.4522713223    0.1132678163    0.3064566201
H          H    0.4349546588    0.1150804416    0.2878274247
H          H    0.4687048465    0.2792347781    0.3270677142
H          H    0.4678198729    0.3267201864    0.2815571346
H          H    0.3646607420    0.2236270505    0.1760356730
H          H    0.3661880951    0.1758585599    0.2212536089
O          O    0.3543191111    0.3595662569    0.1603761673
H          H    0.3486565702    0.3348989643    0.1570623906
H          H    0.3655739181    0.4097337694    0.1142145240
C          C    0.2242136988   -0.0910231133    0.2974654792
C          C    0.1989257453   -0.0901935274    0.2693978347
C          C    0.2055850065   -0.0712545872    0.2372062895
C          C    0.2387450201   -0.0533352577    0.2344330837
C          C    0.2455448326   -0.0346070391    0.2022955412
C          C    0.2788037241   -0.0165757407    0.1996484758
C          C    0.3039213415   -0.0171382461    0.2278527101
C          C    0.2971856128   -0.0358083312    0.2601571481
C          C    0.2641580122   -0.0539955918    0.2627956576
C          C    0.2573967469   -0.0728310416    0.2948952496
C          C    0.2846250535   -0.0736897780    0.3248640885
O          O    0.2784027749   -0.0928813600    0.3512196654
N          N    0.3152934227   -0.0540685804    0.3213269121
C          C    0.3238544753   -0.0359451707    0.2906727426
O          O    0.3522464245   -0.0193407192    0.2866577287
C          C    0.3399555029   -0.0524684652    0.3509017467
C          C    0.3586961521   -0.0833955395    0.3626805461
C          C    0.3841638658   -0.0809476750    0.3904882750
X          X    0.1128068414   -0.0477365090    0.0887945589
C          C    0.3717822041   -0.0170565092    0.3963236036
C          C    0.3466562966   -0.0193136628    0.3682101641
C          C    0.2185396776   -0.0340427119    0.1720929229
O          O    0.2263553056   -0.0174418415    0.1444895063
N          N    0.1869462903   -0.0520313991    0.1765013271
C          C    0.1782876213   -0.0696705676    0.2073224869
O          O    0.1486348661   -0.0837070167    0.2123791329
C          C    0.1614858559   -0.0514092494    0.1475523023
C          C    0.1698860493   -0.0680176369    0.1144512735
C          C    0.1457434199   -0.0661844867    0.0853955011
C          C    0.1043494502   -0.0311565940    0.1218799319
C          C    0.1281850636   -0.0333703320    0.1510910864
H          H    0.3329472309    0.0048288682    0.3596931295
H          H    0.1951749946   -0.0818119161    0.1108120014
X          X    0.3907869357   -0.0477952782    0.4077625525
H          H    0.3767118711    0.0085890775    0.4090669968
H          H    0.1527730132   -0.0787921028    0.0601608485
H          H    0.0797405023   -0.0162985894    0.1255228355
O          O    0.1181564023   -0.0182733249    0.1828935902
H          H    0.1184902294   -0.0355913926    0.2016064899
H          H    0.2852343681   -0.0018552881    0.1754574017
H          H    0.3289765514   -0.0027480492    0.2245764754
H          H    0.2178607760   -0.1059036351    0.3216176443
H          H    0.1738133414   -0.1043684847    0.2727679870
O          O    0.3521373214   -0.1162600812    0.3479649596
H          H    0.3272848156   -0.1219203375    0.3493195624
H          H    0.3985029675   -0.1050133732    0.3979458023
C          C   -0.2220162160   -0.0161656888    0.2958011402
C          C   -0.1966163209   -0.0176380023    0.2678612208
C          C   -0.2043301922   -0.0347177182    0.2348747950
C          C   -0.2386515254   -0.0501049663    0.2311790965
C          C   -0.2464911202   -0.0669668961    0.1982546173
C          C   -0.2809200651   -0.0824638840    0.1946797581
C          C   -0.3061701149   -0.0812754688    0.2227459762
C          C   -0.2983999552   -0.0644737726    0.2558344402
C          C   -0.2641905964   -0.0488045526    0.2594059734
C          C   -0.2563815393   -0.0318314547    0.2922967814
C          C   -0.2837307059   -0.0302701919    0.3221268828
O          O   -0.2763859380   -0.0126679898    0.3492905878
N          N   -0.3156808575   -0.0474993514    0.3176107218
C          C   -0.3252468023   -0.0636941964    0.2861838639
O          O   -0.3547086958   -0.0780590309    0.2813280164
C          C   -0.3406411548   -0.0485549216    0.3469589539
C          C   -0.3572426360   -0.0168834319    0.3599105399
C          C   -0.3830517501   -0.0186540496    0.3874536117
X          X   -0.1122107126   -0.0586591585    0.0861208416
C          C   -0.3752749436   -0.0834494459    0.3906963905
C          C   -0.3498177105   -0.0818320399    0.3628380933
C          C   -0.2193417306   -0.0682092783    0.1682019612
O          O   -0.2280818793   -0.0830649904    0.1398904943
N          N   -0.1865918187   -0.0527086600    0.1735257829
C          C   -0.1769641961   -0.0370102186    0.2050998943
O          O   -0.1464352835   -0.0253371304    0.2108966124
C          C   -0.1609978107   -0.0539503114    0.1447148148
C          C   -0.1679232748   -0.0354415941    0.1122872766
C          C   -0.1437285804   -0.0377920770    0.0833121684
C          C   -0.1052260488   -0.0771429233    0.1185342319
C          C   -0.1290888587   -0.0744413470    0.1476820695
H          H   -0.3377818723   -0.1065180722    0.3533999476
H          H   -0.1921405189   -0.0197463898    0.1090868275
X          X   -0.3921503235   -0.0519328949    0.4032991639
H          H   -0.3821148831   -0.1091811893    0.4023361674
H          H   -0.1496361293   -0.0236910711    0.0585853133
H          H   -0.0817624293   -0.0938500622    0.1216904115
O          O   -0.1204211685   -0.0915062544    0.1788838805
H          H   -0.1196844828   -0.0749912834    0.1982981164
H          H   -0.2881741716   -0.0956841134    0.1698633031
H          H   -0.3321531478   -0.0937011049    0.2187384126
H          H   -0.2148279716   -0.0027788070    0.3205849487
H          H   -0.1705922685   -0.0054348019    0.2719539870
O          O   -0.3482499516    0.0160080366    0.3466091209
H          H   -0.3230712256    0.0198265231    0.3483328968
H          H   -0.3957125881    0.0060437094    0.3958265617
C          C   -0.2242260390    0.2941306486   -0.0912193969
C          C   -0.1989981682    0.2659983229   -0.0909222976
C          C   -0.2059743606    0.2332405212   -0.0731014120
C          C   -0.2393862324    0.2299735686   -0.0557418793
C          C   -0.2464999266    0.1972766673   -0.0381318465
C          C   -0.2800120258    0.1941324735   -0.0206578147
C          C   -0.3050730887    0.2223925606   -0.0206813170
C          C   -0.2980240114    0.2552545778   -0.0382288857
C          C   -0.2647410132    0.2583956094   -0.0558622779
C          C   -0.2576644249    0.2910580344   -0.0735812105
C          C   -0.2848289345    0.3210955570   -0.0738745753
O          O   -0.2782957074    0.3480291545   -0.0921378794
N          N   -0.3157744610    0.3170062705   -0.0548035502
C          C   -0.3246383328    0.2858146996   -0.0377757673
O          O   -0.3532662582    0.2813380374   -0.0217030482
C          C   -0.3404080312    0.3465672601   -0.0526161952
C          C   -0.3586950118    0.3593525751   -0.0834148647
C          C   -0.3841488860    0.3871223289   -0.0804471493
X          X   -0.1137773895    0.0839696527   -0.0529803763
C          C   -0.3726524163    0.3909180290   -0.0162376366
C          C   -0.3475434823    0.3628374242   -0.0190291447
C          C   -0.2195548120    0.1670152118   -0.0381431884
O          O   -0.2276470432    0.1389192497   -0.0225305573
N          N   -0.1877057629    0.1719219869   -0.0555423445
C          C   -0.1787507830    0.2032650204   -0.0720795536
O          O   -0.1488963841    0.2086993482   -0.0855354224
C          C   -0.1623039711    0.1429148904   -0.0554779209
C          C   -0.1705252806    0.1103705415   -0.0732361673
C          C   -0.1464582740    0.0812213715   -0.0719831769
C          C   -0.1054985152    0.1164991309   -0.0352502821
C          C   -0.1292529592    0.1458149469   -0.0368744641
H          H   -0.3341873614    0.3535362505    0.0050216842
H          H   -0.1956247659    0.1072198001   -0.0874890922
X          X   -0.3912066432    0.4033582843   -0.0468624959
H          H   -0.3779193768    0.4028581168    0.0097255149
H          H   -0.1533521855    0.0564107108   -0.0854761364
H          H   -0.0810938302    0.1196214335   -0.0199436186
O          O   -0.1193843334    0.1771056051   -0.0206449276
H          H   -0.1194452816    0.1963549797   -0.0373678877
H          H   -0.2866875232    0.1695034653   -0.0067977043
H          H   -0.3303324290    0.2187170722   -0.0067517969
H          H   -0.2176260802    0.3187259669   -0.1052417896
H          H   -0.1736844960    0.2697607886   -0.1046329507
O          O   -0.3517013220    0.3456651105   -0.1166321261
H          H   -0.3267699021    0.3471455658   -0.1219002422
H          H   -0.3981377904    0.3953634132   -0.1044633412
C          C    0.1220404027   -0.2254906266    0.2989975496
C          C    0.1230667592   -0.1992108948    0.2718629940
C          C    0.1019837334   -0.2022329875    0.2404671732
C          C    0.0797940389   -0.2326937008    0.2376137060
C          C    0.0585938607   -0.2356758906    0.2064453881
C          C    0.0364366423   -0.2663257733    0.2036291430
C          C    0.0356832737   -0.2927491540    0.2306092779
C          C    0.0569553274   -0.2899163880    0.2618661777
C          C    0.0789010442   -0.2592901639    0.2648629786
C          C    0.1000243830   -0.2562402066    0.2960939694
C          C    0.0987666955   -0.2844511553    0.3251251665
O          O    0.1157621228   -0.2789899566    0.3531069576
N          N    0.0783164381   -0.3143023125    0.3197634926
C          C    0.0566214405   -0.3185345730    0.2905600246
O          O    0.0368656305   -0.3447758594    0.2861972258
C          C    0.0792596192   -0.3425412494    0.3459765159
C          C    0.0659071270   -0.3372485820    0.3811920620
C          C    0.0653246364   -0.3657776764    0.4059633779
X          X    0.0815163595   -0.1002978577    0.0977182678
C          C    0.0926330434   -0.4050791770    0.3614765224
C          C    0.0928120992   -0.3767485476    0.3364942254
C          C    0.0594716323   -0.2072912820    0.1775431578
O          O    0.0399206840   -0.2113580248    0.1510886044
N          N    0.0815278351   -0.1784015228    0.1820236738
C          C    0.1035105894   -0.1745179399    0.2109672875
O          O    0.1254402430   -0.1497601779    0.2137994579
C          C    0.0820746246   -0.1514979221    0.1544091040
C          C    0.0510836515   -0.1306636648    0.1475118058
C          C    0.0508637045   -0.1053156154    0.1194423699
C          C    0.1125331733   -0.1210724262    0.1046057227
C          C    0.1129923885   -0.1460466244    0.1329325210
H          H    0.1029865033   -0.3817090261    0.3097507147
H          H    0.0269780582   -0.1343267922    0.1632775628
X          X    0.0789122677   -0.3999232966    0.3964344771
H          H    0.1028934776   -0.4311127941    0.3536428752
H          H    0.0267878771   -0.0898341538    0.1143597080
H          H    0.1363797419   -0.1185395110    0.0883405179
O          O    0.1440186751   -0.1643307622    0.1394863214
H          H    0.1517418654   -0.1606794306    0.1635117164
H          H    0.0196506890   -0.2697640787    0.1801842572
H          H    0.0183593489   -0.3158407140    0.2271111808
H          H    0.1387080264   -0.2219705780    0.3225542065
H          H    0.1405412922   -0.1762747778    0.2752535066
O          O    0.0539628318   -0.3044433370    0.3921827172
H          H    0.0718918947   -0.2866516399    0.3885050995
H          H    0.0540293041   -0.3607797101    0.4321896668
C          C    0.3032103624   -0.2264376210    0.0941988871
C          C    0.2787889993   -0.1976084369    0.0935380788
C          C    0.2455845792   -0.2001079368    0.0753572313
C          C    0.2379806123   -0.2328179487    0.0580189813
C          C    0.2048154248   -0.2354612869    0.0400499022
C          C    0.1973206482   -0.2682877099    0.0225987310
C          C    0.2218943564   -0.2969699689    0.0229871293
C          C    0.2552149768   -0.2944133744    0.0408957401
C          C    0.2626735957   -0.2618129587    0.0585066182
C          C    0.2957983645   -0.2592013209    0.0765842609
C          C    0.3218427384   -0.2902089775    0.0772663591
O          O    0.3492124635   -0.2873522142    0.0958240173
N          N    0.3137796655   -0.3203690926    0.0582031309
C          C    0.2818603589   -0.3249497225    0.0408364128
O          O    0.2736967030   -0.3527513105    0.0247629019
C          C    0.3397247923   -0.3488125466    0.0563949024
C          C    0.3495538424   -0.3685725986    0.0873685402
C          C    0.3736212805   -0.3975868280    0.0847610084
X          X    0.1105235205   -0.0884728358    0.0533790794
C          C    0.3796595948   -0.3869247693    0.0205792586
C          C    0.3552391072   -0.3582104141    0.0230076461
C          C    0.1785159200   -0.2046394278    0.0396703164
O          O    0.1497527366   -0.2088733909    0.0237525913
N          N    0.1875305567   -0.1737012217    0.0570695471
C          C    0.2196177532   -0.1690525979    0.0739472929
O          O    0.2289263431   -0.1401751905    0.0874129301
C          C    0.1622638239   -0.1445796344    0.0566311369
C          C    0.1287078008   -0.1482259347    0.0740316291
C          C    0.1031313124   -0.1204111276    0.0724054035
C          C    0.1440723576   -0.0847673887    0.0360064694
C          C    0.1698524755   -0.1122940866    0.0380052236
H          H    0.3481139320   -0.3437884959   -0.0011704512
H          H    0.1220040111   -0.1726143099    0.0882907973
X          X    0.3891122850   -0.4069030534    0.0513756261
H          H    0.3910553565   -0.3938560292   -0.0052371315
H          H    0.0774644222   -0.1238115016    0.0856267017
H          H    0.1506648027   -0.0610668621    0.0206945010
O          O    0.2023745258   -0.1068398566    0.0221162330
H          H    0.2212495291   -0.1094721615    0.0390574419
H          H    0.1721657418   -0.2715855165    0.0084704681
H          H    0.2149603465   -0.3215368257    0.0090600195
H          H    0.3283197945   -0.2232095215    0.1084891674
H          H    0.2858190002   -0.1730003357    0.1072472336
O          O    0.3365826456   -0.3596687484    0.1204156925
H          H    0.3413932469   -0.3351554453    0.1256575339
H          H    0.3796103785   -0.4124910850    0.1088934823
C          C   -0.2965599051   -0.2304922575    0.1099080714
C          C   -0.2702366072   -0.2033860592    0.1104552918
C          C   -0.2434430024   -0.2011650026    0.0836878846
C          C   -0.2443474754   -0.2272505615    0.0563546506
C          C   -0.2178004018   -0.2249822970    0.0295234603
C          C   -0.2187315664   -0.2512614711    0.0021953232
C          C   -0.2448480333   -0.2785471127    0.0018579223
C          C   -0.2714653390   -0.2809792008    0.0287488588
C          C   -0.2707516390   -0.2546970021    0.0559020875
C          C   -0.2973762891   -0.2568888544    0.0826826051
C          C   -0.3255685130   -0.2859556034    0.0819263003
O          O   -0.3498467427   -0.2849078493    0.1045342521
N          N   -0.3236884324   -0.3116042861    0.0559135581
C          C   -0.2991408329   -0.3105852046    0.0287510055
O          O   -0.2981748490   -0.3328501295    0.0042301705
C          C   -0.3486910357   -0.3409234443    0.0567539113
C          C   -0.3859134889   -0.3352935880    0.0513475158
C          C   -0.4097903521   -0.3645656049    0.0503931899
X          X   -0.1092643911   -0.0899423825    0.0551825574
C          C   -0.3601408617   -0.4055428188    0.0615839215
C          C   -0.3361310504   -0.3763870268    0.0620740516
C          C   -0.1898112167   -0.1956871835    0.0299671132
O          O   -0.1675502424   -0.1950104353    0.0054189494
N          N   -0.1904991095   -0.1712100619    0.0571988386
C          C   -0.2147297308   -0.1726073906    0.0845297896
O          O   -0.2137470365   -0.1520900052    0.1106056242
C          C   -0.1638090984   -0.1433838271    0.0573025734
C          C   -0.1634096412   -0.1172848381    0.0297206385
C          C   -0.1363918843   -0.0908365027    0.0287250532
C          C   -0.1096503345   -0.1159864731    0.0827981216
C          C   -0.1368814961   -0.1421206513    0.0841386896
H          H   -0.3078391194   -0.3815945395    0.0660474992
H          H   -0.1834549859   -0.1176408738    0.0087179073
X          X   -0.3971790248   -0.3999719883    0.0557494490
H          H   -0.3499869699   -0.4324913177    0.0654657580
H          H   -0.1363386880   -0.0712683279    0.0072253186
H          H   -0.0891436415   -0.1166731054    0.1032587067
O          O   -0.1369852051   -0.1656977271    0.1121387559
H          H   -0.1591354288   -0.1646594955    0.1247279946
H          H   -0.1989020448   -0.2505898616   -0.0190082566
H          H   -0.2443208899   -0.2981675901   -0.0195974813
H          H   -0.3165234334   -0.2310692502    0.1310324900
H          H   -0.2706262397   -0.1839384072    0.1320088884
O          O   -0.3996168157   -0.3015601303    0.0476169083
H          H   -0.3928876282   -0.2868845220    0.0673872234
H          H   -0.4377916633   -0.3591049650    0.0452463407
C          C    0.0297052198    0.2891210151   -0.2340416987
C          C    0.0293557148    0.2613391196   -0.2084290857
C          C    0.0562371537    0.2345755768   -0.2077768134
C          C    0.0834771148    0.2370329604   -0.2338598638
C          C    0.1104215147    0.2105132300   -0.2331470440
C          C    0.1376556099    0.2130079337   -0.2594219226
C          C    0.1377955086    0.2405923490   -0.2852244565
C          C    0.1107905227    0.2671910004   -0.2860967791
C          C    0.0837304769    0.2649139899   -0.2598074292
C          C    0.0568367013    0.2915071699   -0.2604398315
C          C    0.0573811273    0.3212642501   -0.2879074413
O          O    0.0346803004    0.3453531272   -0.2854481311
N          N    0.0833132105    0.3209117237   -0.3137038521
C          C    0.1105767220    0.2964587566   -0.3141289317
O          O    0.1350248567    0.2968258670   -0.3364915115
C          C    0.0822728517    0.3474913564   -0.3415945408
C          C    0.0875500619    0.3843683923   -0.3339348134
C          C    0.0883090059    0.4098288912   -0.3618463454
X          X    0.0856576317    0.0945803703   -0.1042262872
C          C    0.0771760953    0.3624715055   -0.4054671433
C          C    0.0768814727    0.3368866152   -0.3776804851
C          C    0.1101897084    0.1809475713   -0.2054412053
O          O    0.1348285813    0.1587857241   -0.2060734455
N          N    0.0830394018    0.1801693455   -0.1808765078
C          C    0.0556074631    0.2043260039   -0.1808460643
O          O    0.0296061374    0.2021032137   -0.1603310006
C          C    0.0831373025    0.1519833907   -0.1545666323
C          C    0.1108097704    0.1502584584   -0.1286178627
C          C    0.1120035660    0.1218259259   -0.1037053927
C          C    0.0579517768    0.0962886380   -0.1301208813
C          C    0.0564132278    0.1249154630   -0.1547067860
H          H    0.0730030365    0.3089090562   -0.3844298687
H          H    0.1317310814    0.1703802768   -0.1279334109
X          X    0.0828819091    0.3991695778   -0.3978778983
H          H    0.0732425531    0.3538049944   -0.4329227555
H          H    0.1335701860    0.1207819711   -0.0842388652
H          H    0.0375708745    0.0757660113   -0.1318736179
O          O    0.0283324451    0.1262041075   -0.1781525016
H          H    0.0156586404    0.1482105387   -0.1758522614
H          H    0.1589402358    0.1932601489   -0.2599143119
H          H    0.1591855569    0.2412388305   -0.3049126004
H          H    0.0084995437    0.3089977068   -0.2334476895
H          H    0.0078674317    0.2605644714   -0.1889207833
O          O    0.0913414511    0.3962036246   -0.2995081159
H          H    0.0716484686    0.3885920048   -0.2851634200
H          H    0.0933628521    0.4375071916   -0.3548640249
C          C    0.3041148483   -0.0909338863   -0.2256701858
C          C    0.2792775098   -0.0900171895   -0.1972056855
C          C    0.2462960625   -0.0715085127   -0.2002018915
C          C    0.2393494809   -0.0541106642   -0.2330262724
C          C    0.2064072824   -0.0358142014   -0.2361656540
C          C    0.1995727182   -0.0183045758   -0.2691048533
C          C    0.2245629121   -0.0189503219   -0.2974202762
C          C    0.2576624031   -0.0371879036   -0.2943653482
C          C    0.2644625707   -0.0548569733   -0.2616526162
C          C    0.2973637466   -0.0732616073   -0.2585454954
C          C    0.3238558490   -0.0742167223   -0.2891642103
O          O    0.3509944978   -0.0930440594   -0.2858969871
N          N    0.3164296652   -0.0550882436   -0.3194463082
C          C    0.2847558171   -0.0374073832   -0.3245041470
O          O    0.2771644609   -0.0212663868   -0.3524285248
C          C    0.3428093636   -0.0535509862   -0.3475033522
C          C    0.3526212340   -0.0846298572   -0.3671060839
C          C    0.3771399300   -0.0822749448   -0.3957618727
X          X    0.1098236954   -0.0481381394   -0.0905841786
C          C    0.3836575839   -0.0181514410   -0.3850318128
C          C    0.3587921110   -0.0203238488   -0.3566811452
C          C    0.1796598307   -0.0351591349   -0.2057363960
O          O    0.1511220730   -0.0189583918   -0.2104004550
N          N    0.1880424592   -0.0526327932   -0.1746627365
C          C    0.2198880256   -0.0698263419   -0.1695345810
O          O    0.2286341449   -0.0833704722   -0.1405183816
C          C    0.1623533496   -0.0519299499   -0.1459183025
C          C    0.1286836181   -0.0689978889   -0.1500552039
C          C    0.1027159387   -0.0671048144   -0.1226223632
C          C    0.1434850900   -0.0310979826   -0.0863882346
C          C    0.1696484019   -0.0333654574   -0.1135298678
H          H    0.3516950925    0.0039304928   -0.3423738228
H          H    0.1221998854   -0.0832010004   -0.1745356114
X          X    0.3930981444   -0.0490494121   -0.4048583768
H          H    0.3954106889    0.0075472597   -0.3918018240
H          H    0.0769719931   -0.0800720301   -0.1263979570
H          H    0.1498781356   -0.0158413341   -0.0625975786
O          O    0.2022425580   -0.0177978390   -0.1076000577
H          H    0.2209850933   -0.0349269448   -0.1099474908
H          H    0.1746110291   -0.0039286223   -0.2727789108
H          H    0.2181318242   -0.0049663447   -0.3220914096
H          H    0.3290304908   -0.1054714296   -0.2220664497
H          H    0.2858061301   -0.1037841572   -0.1724919605
O          O    0.3391918889   -0.1175424009   -0.3583847350
H          H    0.3435870343   -0.1228204682   -0.3338012952
H          H    0.3831086397   -0.1064726011   -0.4105683040
C          C   -0.2314289475    0.0162781002   -0.2919764466
C          C   -0.2051707940    0.0170794106   -0.2648134436
C          C   -0.2108945700    0.0355681717   -0.2321832597
C          C   -0.2441343042    0.0530670266   -0.2280251723
C          C   -0.2499980856    0.0713440784   -0.1954464873
C          C   -0.2833423676    0.0889551857   -0.1914096204
C          C   -0.3094381551    0.0884244743   -0.2187119673
C          C   -0.3036449946    0.0702067207   -0.2514544716
C          C   -0.2705297874    0.0524368798   -0.2554764594
C          C   -0.2647019739    0.0340517261   -0.2880171325
C          C   -0.2929663438    0.0332205280   -0.3170116816
O          O   -0.2874690926    0.0144069770   -0.3437975088
N          N   -0.3237081385    0.0524412588   -0.3121580801
C          C   -0.3313778397    0.0701101240   -0.2810066018
O          O   -0.3597939380    0.0863355312   -0.2757919645
C          C   -0.3494216834    0.0540939406   -0.3408204533
C          C   -0.3682203978    0.0230881614   -0.3522959037
C          C   -0.3946857636    0.0255587809   -0.3791538019
X          X   -0.1131727845    0.0584574271   -0.0868785323
C          C   -0.3832375773    0.0896526774   -0.3846628083
C          C   -0.3571050623    0.0873652479   -0.3574850463
C          C   -0.2219451009    0.0718756201   -0.1662139285
O          O   -0.2289611698    0.0880659041   -0.1381555780
N          N   -0.1903282152    0.0543079702   -0.1719514565
C          C   -0.1825723362    0.0371263380   -0.2032674997
O          O   -0.1529621524    0.0234952481   -0.2095370982
C          C   -0.1638640607    0.0548937481   -0.1439162609
C          C   -0.1708960067    0.0378092105   -0.1107387051
C          C   -0.1457585515    0.0395892520   -0.0825357855
C          C   -0.1060828044    0.0755139823   -0.1200428063
C          C   -0.1309147021    0.0733587659   -0.1484163947
H          H   -0.3433741093    0.1115662913   -0.3491717684
H          H   -0.1958831842    0.0236804161   -0.1063711732
X          X   -0.4022902329    0.0588281957   -0.3957870582
H          H   -0.3889045527    0.1153839204   -0.3969176166
H          H   -0.1517452281    0.0266113474   -0.0572200087
H          H   -0.0817872282    0.0906984818   -0.1243772414
O          O   -0.1221923152    0.0889361629   -0.1803719514
H          H   -0.1229961616    0.0718316573   -0.1992661105
H          H   -0.2890745144    0.1033206634   -0.1668326287
H          H   -0.3345212060    0.1024832775   -0.2143800360
H          H   -0.2257712879    0.0017512223   -0.3165137110
H          H   -0.1800363426    0.0032375639   -0.2692386893
O          O   -0.3607742510   -0.0098647692   -0.3382138548
H          H   -0.3359235486   -0.0152192535   -0.3405144154
H          H   -0.4090095403    0.0014150419   -0.3863850998
C          C   -0.0311525501   -0.2885012759   -0.2383071377
C          C   -0.0305319028   -0.2609990853   -0.2123994915
C          C   -0.0572512629   -0.2340864200   -0.2113465512
C          C   -0.0846134846   -0.2361027360   -0.2373393007
C          C   -0.1113969979   -0.2094341457   -0.2362281684
C          C   -0.1387543723   -0.2114857496   -0.2624131587
C          C   -0.1391650375   -0.2387896646   -0.2885094777
C          C   -0.1123220706   -0.2655358104   -0.2897812050
C          C   -0.0851399714   -0.2637010150   -0.2635833468
C          C   -0.0584071823   -0.2904436167   -0.2646146417
C          C   -0.0592421648   -0.3198997392   -0.2923975404
O          O   -0.0366745184   -0.3441468208   -0.2902927544
N          N   -0.0852786935   -0.3191171349   -0.3180790265
C          C   -0.1123982918   -0.2945010328   -0.3181265560
O          O   -0.1369409054   -0.2944836856   -0.3403884259
C          C   -0.0845118542   -0.3454008208   -0.3462575564
C          C   -0.0899757102   -0.3823264457   -0.3389719094
C          C   -0.0910015785   -0.4074802719   -0.3671516760
X          X   -0.0854106548   -0.0950427237   -0.1061760561
C          C   -0.0797695060   -0.3597226397   -0.4103082144
C          C   -0.0792077285   -0.3344403563   -0.3822500188
C          C   -0.1108747716   -0.1801701541   -0.2082077922
O          O   -0.1353842435   -0.1578582124   -0.2084981366
N          N   -0.0836184671   -0.1798160066   -0.1837509405
C          C   -0.0563303296   -0.2041325676   -0.1840955510
O          O   -0.0302312433   -0.2022836354   -0.1636677093
C          C   -0.0834399204   -0.1519146566   -0.1571398532
C          C   -0.1109935888   -0.1503062242   -0.1310575254
C          C   -0.1119152544   -0.1221368332   -0.1058364795
C          C   -0.0578232763   -0.0966352720   -0.1322041740
C          C   -0.0565566610   -0.1250044827   -0.1571022165
H          H   -0.0751915853   -0.3064151039   -0.3887150074
H          H   -0.1320307957   -0.1703108066   -0.1305008262
X          X   -0.0856611863   -0.3964660346   -0.4030893154
H          H   -0.0758987999   -0.3507845343   -0.4376855721
H          H   -0.1333942134   -0.1211755090   -0.0862690369
H          H   -0.0373285279   -0.0762152387   -0.1338225044
O          O   -0.0285816988   -0.1262059920   -0.1806786967
H          H   -0.0160291276   -0.1483100806   -0.1786683063
H          H   -0.1599234153   -0.1916089275   -0.2626037279
H          H   -0.1606401855   -0.2390984329   -0.3081129925
H          H   -0.0100627967   -0.3085076239   -0.2380160058
H          H   -0.0089585101   -0.2605608032   -0.1929748450
O          O   -0.0936940789   -0.3945088707   -0.3046585430
H          H   -0.0738968690   -0.3871680147   -0.2903161958
H          H   -0.0961903585   -0.4352018790   -0.3604455938
C          C    0.2350653416    0.5012939377    0.2119897413
C          C    0.2108640769    0.5007173625    0.2410057344
C          C    0.2114250256    0.5274874078    0.2678827661
C          C    0.2372371364    0.5548538919    0.2642509254
C          C    0.2377252491    0.5816876090    0.2908877169
C          C    0.2637271240    0.6090492389    0.2872090656
C          C    0.2881287675    0.6094162675    0.2583799995
C          C    0.2877963046    0.5825230000    0.2316562182
C          C    0.2617684325    0.5553362296    0.2351189037
C          C    0.2611961418    0.5285530712    0.2084129565
C          C    0.2871512911    0.5293408610    0.1773330746
O          O    0.2835973838    0.5067265920    0.1532994606
N          N    0.3128221019    0.5553868666    0.1765163136
C          C    0.3143428167    0.5825531368    0.2010338366
O          O    0.3365547164    0.6071027083    0.1996622879
C          C    0.3393642067    0.5545789794    0.1485822242
C          C    0.3298621442    0.5599704950    0.1121531357
C          C    0.3564728716    0.5609574565    0.0853434111
X          X    0.1148211738    0.5558776410    0.4129641907
C          C    0.4024363426    0.5498295039    0.1304318201
C          C    0.3759545153    0.5493069142    0.1573615645
C          C    0.2115213320    0.5812121361    0.3217895566
O          O    0.2131465461    0.6057639888    0.3439973657
N          N    0.1871420145    0.5539488963    0.3236694134
C          C    0.1860308657    0.5266147780    0.2994275474
O          O    0.1657628920    0.5005128507    0.3025542620
C          C    0.1622624785    0.5538149582    0.3531254415
C          C    0.1363129178    0.5813634757    0.3562525887
C          C    0.1128365903    0.5823306915    0.3858902584
C          C    0.1407175957    0.5282954266    0.4098562317
C          C    0.1638596022    0.5269827815    0.3800392371
H          H    0.3840999260    0.5453459672    0.1849532917
H          H    0.1345415802    0.6023625239    0.3362786088
X          X    0.3930117162    0.5556492097    0.0941798011
H          H    0.4303046368    0.5459843245    0.1377094692
H          H    0.0933536079    0.6038053195    0.3879898834
H          H    0.1435734595    0.5078399563    0.4301798501
O          O    0.1873326044    0.4990129591    0.3774702156
H          H    0.1839979129    0.4864178445    0.3555512182
H          H    0.2651072836    0.6302560170    0.3069984748
H          H    0.3076687913    0.6308969279    0.2568490345
H          H    0.2335769557    0.4801661719    0.1920769596
H          H    0.1915104499    0.4791387592    0.2426553719
O          O    0.2948748413    0.5636550128    0.1020557510
H          H    0.2810098627    0.5438672743    0.1102854833
H          H    0.3481046220    0.5660915392    0.0580671202
C          C    0.2284056498    0.5160949258    0.7940371251
C          C    0.2026875545    0.5168395926    0.7663606637
C          C    0.2088323595    0.5357133168    0.7340288109
C          C    0.2419288995    0.5536564326    0.7307056828
C          C    0.2482152685    0.5723196823    0.6984261236
C          C    0.2814125128    0.5903751350    0.6952273513
C          C    0.3069621459    0.5898976961    0.7230424235
C          C    0.3007423694    0.5712930068    0.7554877430
C          C    0.2677764030    0.5530817823    0.7586747395
C          C    0.2615280926    0.5343112528    0.7909159946
C          C    0.2892156245    0.5335433930    0.8204635894
O          O    0.2834180853    0.5144045184    0.8469540033
N          N    0.3198074521    0.5531844310    0.8164112326
C          C    0.3278782697    0.5712477452    0.7855890604
O          O    0.3561894164    0.5878689317    0.7811006241
C          C    0.3449206880    0.5548722254    0.8455990063
C          C    0.3638695565    0.5239882215    0.8571555914
C          C    0.3897603131    0.5265205836    0.8845621987
X          X    0.1137569422    0.5588193152    0.5870128005
C          C    0.3774101046    0.5904132795    0.8904472155
C          C    0.3518562252    0.5880712609    0.8627292496
C          C    0.2207475363    0.5727928184    0.6686419864
O          O    0.2281214419    0.5893396697    0.6408850273
N          N    0.1892426910    0.5547853766    0.6735761306
C          C    0.1810763870    0.5372065832    0.7045657128
O          O    0.1515182225    0.5231545555    0.7101094384
C          C    0.1633387525    0.5553205030    0.6450215088
C          C    0.1712436061    0.5386465633    0.6118315567
C          C    0.1466545357    0.5403936418    0.5831472365
C          C    0.1057946831    0.5754646961    0.6201880424
C          C    0.1300795246    0.5733370971    0.6490332922
H          H    0.3379949499    0.6121825004    0.8543714190
H          H    0.1964864128    0.5248671323    0.6078334090
X          X    0.3966176121    0.5597170678    0.9016595090
H          H    0.3825114446    0.6160914260    0.9030567725
H          H    0.1533063804    0.5277366172    0.5578350349
H          H    0.0812308512    0.5903084721    0.6241770076
O          O    0.1205278109    0.5884953176    0.6809532865
H          H    0.1211661059    0.5712189781    0.6996968241
H          H    0.2874559291    0.6050478674    0.6709077909
H          H    0.3319504077    0.6043032522    0.7193489500
H          H    0.2224394962    0.5012621089    0.8183169355
H          H    0.1776433505    0.5026494315    0.7701484518
O          O    0.3571156352    0.4910853074    0.8426150401
H          H    0.3322922645    0.4854056012    0.8443648120
H          H    0.4042351559    0.5024844032    0.8918507747
C          C    0.2914246069    0.7361770433    0.4942201840
C          C    0.2659338019    0.7082839349    0.4946136807
C          C    0.2392955220    0.7053302463    0.4677621964
C          C    0.2394858467    0.7315112515    0.4405060250
C          C    0.2130955950    0.7285180365    0.4135913413
C          C    0.2133067143    0.7548933612    0.3863408953
C          C    0.2385847514    0.7829589453    0.3861571248
C          C    0.2650400670    0.7861178616    0.4131322245
C          C    0.2650468970    0.7597466180    0.4402083880
C          C    0.2915171489    0.7626659563    0.4670724078
C          C    0.3188171617    0.7925759674    0.4664808449
O          O    0.3430520813    0.7921983123    0.4891562888
N          N    0.3162337420    0.8182320262    0.4405358073
C          C    0.2918050988    0.8165489916    0.4132991369
O          O    0.2902337325    0.8388461953    0.3888390291
C          C    0.3403334533    0.8482929692    0.4415323240
C          C    0.3777245988    0.8438098108    0.4362182914
C          C    0.4007055874    0.8737947737    0.4354167334
X          X    0.1086317490    0.5901757289    0.4385502011
C          C    0.3498051446    0.9132152676    0.4465794365
C          C    0.3266890560    0.8833438068    0.4469167463
C          C    0.1860063332    0.6983868376    0.4138701963
O          O    0.1638454956    0.6971076223    0.3892555218
N          N    0.1873591564    0.6738620869    0.4410340698
C          C    0.2114590251    0.6759130918    0.4684392907
O          O    0.2110252438    0.6552989930    0.4944536848
C          C    0.1615248909    0.6452394608    0.4409809690
C          C    0.1619947722    0.6192213259    0.4133238578
C          C    0.1357942396    0.5919692487    0.4121744119
C          C    0.1081499297    0.6161384826    0.4662407457
C          C    0.1345723191    0.6430820054    0.4677348990
H          H    0.2982411417    0.8876797085    0.4508226330
H          H    0.1820793145    0.6202463552    0.3923806538
X          X    0.3870115042    0.9087867765    0.4408369620
H          H    0.3388279535    0.9398321173    0.4505083474
H          H    0.1363950448    0.5724715644    0.3906190362
H          H    0.0875741708    0.6161432434    0.4866434315
O          O    0.1338821081    0.6665692065    0.4958021034
H          H    0.1560180011    0.6661659386    0.5084527510
H          H    0.1935666049    0.7536831764    0.3650778683
H          H    0.2375235457    0.8026172429    0.3647561777
H          H    0.3113017531    0.7372969490    0.5154041712
H          H    0.2668520434    0.6887939267    0.5161129113
O          O    0.3924548648    0.8105182913    0.4324316379
H          H    0.3861179380    0.7955875652    0.4521404578
H          H    0.4288740037    0.8692004932    0.4303358889
C          C   -0.2234749722    0.2052437937    0.5897825492
C          C   -0.1982644603    0.2333915105    0.5894701281
C          C   -0.2056153932    0.2664612729    0.5723915042
C          C   -0.2393807025    0.2700213547    0.5557900213
C          C   -0.2468647232    0.3030263451    0.5389239221
C          C   -0.2807325872    0.3064656946    0.5222078465
C          C   -0.3057819739    0.2781952670    0.5222410115
C          C   -0.2983638176    0.2450262766    0.5390430311
C          C   -0.2647217016    0.2415870826    0.5559232128
C          C   -0.2572725278    0.2086145779    0.5728995618
C          C   -0.2844189486    0.1785609198    0.5732140239
O          O   -0.2775029074    0.1513061799    0.5908491460
N          N   -0.3157540994    0.1829754907    0.5548654070
C          C   -0.3249755395    0.2144638831    0.5385904602
O          O   -0.3539314971    0.2192130459    0.5231979659
C          C   -0.3404216607    0.1534444844    0.5526562210
C          C   -0.3580634729    0.1400953201    0.5835916744
C          C   -0.3835677102    0.1123688539    0.5806517387
X          X   -0.1138860943    0.4161240577    0.5530597592
C          C   -0.3734043215    0.1097382070    0.5161597010
C          C   -0.3482486676    0.1377784511    0.5189362534
C          C   -0.2199313781    0.3332982783    0.5389226388
O          O   -0.2283513648    0.3616664957    0.5239904721
N          N   -0.1877273974    0.3280970210    0.5555665429
C          C   -0.1784250099    0.2964660891    0.5713464803
O          O   -0.1482969065    0.2908073121    0.5840804144
C          C   -0.1623383568    0.3571152717    0.5554988849
C          C   -0.1701963600    0.3893293592    0.5740079163
C          C   -0.1461664918    0.4185103184    0.5727823707
C          C   -0.1059699581    0.3839243641    0.5345779444
C          C   -0.1296796000    0.3545702740    0.5361650565
H          H   -0.3353960230    0.1475195132    0.4947854478
H          H   -0.1949955599    0.3922080520    0.5888325586
X          X   -0.3913169973    0.0967370254    0.5469331740
H          H   -0.3792060463    0.0982651592    0.4901001353
H          H   -0.1527842360    0.4430696535    0.5868607007
H          H   -0.0818872642    0.3810927032    0.5187148763
O          O   -0.1201431941    0.3235830628    0.5191726280
H          H   -0.1198534269    0.3040352501    0.5355432903
H          H   -0.2876990945    0.3313367429    0.5089356310
H          H   -0.3313254669    0.2821066930    0.5089066303
H          H   -0.2165806293    0.1804034600    0.6032191592
H          H   -0.1726711674    0.2293970993    0.6025830298
O          O   -0.3503853342    0.1531856600    0.6168983407
H          H   -0.3253497365    0.1516248957    0.6216209827
H          H   -0.3970539381    0.1036879667    0.6048001600
C          C   -0.2241793133    0.5118863305    0.2062028193
C          C   -0.1987268345    0.5133122293    0.2340972563
C          C   -0.2053631073    0.5326027182    0.2660841555
C          C   -0.2386711738    0.5502486443    0.2688361611
C          C   -0.2454463560    0.5693264400    0.3007726587
C          C   -0.2788551210    0.5870817773    0.3033977223
C          C   -0.3041406141    0.5859227386    0.2753622017
C          C   -0.2974310882    0.5669003214    0.2432584832
C          C   -0.2642520904    0.5489870111    0.2406454395
C          C   -0.2575142167    0.5298021309    0.2087485099
C          C   -0.2849184310    0.5283045808    0.1789656996
O          O   -0.2786806050    0.5088327771    0.1528201763
N          N   -0.3157461676    0.5476850867    0.1824439938
C          C   -0.3242860207    0.5661226973    0.2129161636
O          O   -0.3528063530    0.5825140778    0.2168966424
C          C   -0.3406048343    0.5486749186    0.1530073444
C          C   -0.3591285024    0.5174262157    0.1417455387
C          C   -0.3847897215    0.5192790452    0.1140700058
X          X   -0.1118910525    0.5588925563    0.4135926264
C          C   -0.3730415336    0.5832014277    0.1073360044
C          C   -0.3477219862    0.5815400678    0.1353169238
C          C   -0.2182610823    0.5705305703    0.3307944171
O          O   -0.2260602387    0.5874133498    0.3582310068
N          N   -0.1865290250    0.5527796842    0.3264181636
C          C   -0.1778971174    0.5348250015    0.2957721812
O          O   -0.1481464878    0.5209995229    0.2907092137
C          C   -0.1608966800    0.5540111478    0.3551954673
C          C   -0.1689362370    0.5377544204    0.3885595832
C          C   -0.1446322602    0.5401859117    0.4174363811
C          C   -0.1037939382    0.5751215463    0.3802441695
C          C   -0.1277883274    0.5723103513    0.3512149580
H          H   -0.3341864428    0.6059164008    0.1434362597
H          H   -0.1940722552    0.5237747780    0.3925354335
X          X   -0.3918289206    0.5521429494    0.0964132618
H          H   -0.3782892796    0.6086336356    0.0942954611
H          H   -0.1513873848    0.5278405861    0.4428748576
H          H   -0.0793478292    0.5901584387    0.3762553112
O          O   -0.1180982494    0.5870877261    0.3191583752
H          H   -0.1183862697    0.5695271778    0.3006720636
H          H   -0.2852729599    0.6020531443    0.3274377406
H          H   -0.3293083182    0.6001214929    0.2786113652
H          H   -0.2178374551    0.4967546974    0.1822042538
H          H   -0.1735045314    0.4993280045    0.2307510575
O          O   -0.3521720754    0.4848165042    0.1568405603
H          H   -0.3272766709    0.4793695201    0.1554019194
H          H   -0.3989494160    0.4949873812    0.1070130592
C          C   -0.2318564161    0.4845175398    0.7915776995
C          C   -0.2055886868    0.4837255297    0.7644236838
C          C   -0.2110988083    0.4648253696    0.7319930299
C          C   -0.2441366349    0.4469054366    0.7280234503
C          C   -0.2497891694    0.4282159144    0.6956420376
C          C   -0.2829302673    0.4101838455    0.6917948747
C          C   -0.3090325684    0.4107086281    0.7190911089
C          C   -0.3034499875    0.4293398038    0.7516369678
C          C   -0.2705397572    0.4475278173    0.7554675672
C          C   -0.2649244172    0.4663246124    0.7878098173
C          C   -0.2931987182    0.4671432002    0.8167950411
O          O   -0.2879183458    0.4863031232    0.8433782130
N          N   -0.3237190897    0.4475226420    0.8121482671
C          C   -0.3311844707    0.4294358910    0.7811875623
O          O   -0.3594134035    0.4128329405    0.7761476896
C          C   -0.3494143983    0.4458831760    0.8408277484
C          C   -0.3685661470    0.4767934711    0.8519722604
C          C   -0.3950037636    0.4743083310    0.8788561357
X          X   -0.1131110222    0.4415010229    0.5869368415
C          C   -0.3828263317    0.4104115438    0.8850487454
C          C   -0.3567194313    0.4127063074    0.8578469948
C          C   -0.2217296360    0.4276919960    0.6664156270
O          O   -0.2285585219    0.4111241231    0.6385320573
N          N   -0.1903154615    0.4456790863    0.6719638916
C          C   -0.1827583687    0.4632814030    0.7030943511
O          O   -0.1533059461    0.4773152256    0.7092167765
C          C   -0.1638441318    0.4450956166    0.6439354228
C          C   -0.1710676943    0.4617436638    0.6105776266
C          C   -0.1459093543    0.4599491658    0.5823942523
C          C   -0.1058297472    0.4248814744    0.6202810554
C          C   -0.1306868385    0.4270564061    0.6486310696
H          H   -0.3427129130    0.3885759298    0.8497920288
H          H   -0.1962139177    0.4755393357    0.6060605381
X          X   -0.4022299111    0.4411339193    0.8958440235
H          H   -0.3882006711    0.3847497122    0.8975778585
H          H   -0.1520415375    0.4725869407    0.5569415936
H          H   -0.0813630466    0.4100219910    0.6247763514
O          O   -0.1217900237    0.4119215322    0.6807507709
H          H   -0.1227902388    0.4292165418    0.6994612424
H          H   -0.2884963858    0.3954923623    0.6673729251
H          H   -0.3339534311    0.3963194275    0.7149106146
H          H   -0.2263666162    0.4993691305    0.8159582038
H          H   -0.1806139618    0.4978993824    0.7686998017
O          O   -0.3614949068    0.5096768745    0.8375388207
H          H   -0.3367070208    0.5153384789    0.8397810161
H          H   -0.4096023284    0.4983631019    0.8858298205
C          C   -0.2324197977    0.7900720786    0.4047707113
C          C   -0.2062855351    0.7627916536    0.4056310522
C          C   -0.2121615848    0.7302240108    0.4241822107
C          C   -0.2454236983    0.7262512176    0.4416815896
C          C   -0.2514394716    0.6937352955    0.4600209067
C          C   -0.2848056055    0.6898844157    0.4776322772
C          C   -0.3107769298    0.7173039739    0.4770422994
C          C   -0.3048310451    0.7499841500    0.4587619442
C          C   -0.2716940166    0.7538208816    0.4409918175
C          C   -0.2657143599    0.7862987444    0.4225444647
C          C   -0.2938464881    0.8154197513    0.4216502019
O          O   -0.2882234499    0.8421435035    0.4027856183
N          N   -0.3246142253    0.8107434665    0.4408733804
C          C   -0.3324292808    0.7796617514    0.4586013134
O          O   -0.3608723314    0.7746080132    0.4748304085
C          C   -0.3501976077    0.8395255643    0.4424642221
C          C   -0.3689371962    0.8510257039    0.4114318102
C          C   -0.3952807711    0.8780083637    0.4138439417
X          X   -0.1151061619    0.5845217334    0.4473774796
C          C   -0.3838216836    0.8835905386    0.4779295588
C          C   -0.3578124498    0.8562898894    0.4757011661
C          C   -0.2235197426    0.6643766568    0.4606159303
O          O   -0.2306667922    0.6363821719    0.4768593921
N          N   -0.1918732679    0.6699361113    0.4430443023
C          C   -0.1839713942    0.7011829500    0.4258032995
O          O   -0.1543300434    0.7072912803    0.4121667278
C          C   -0.1655369230    0.6417821471    0.4436908618
C          C   -0.1727158374    0.6086035632    0.4266695617
C          C   -0.1477072013    0.5802902397    0.4285104082
C          C   -0.1078692683    0.6176867173    0.4643708362
C          C   -0.1325714922    0.6461685859    0.4621545519
H          H   -0.3441247114    0.8479616139    0.4999215254
H          H   -0.1977195150    0.6043220179    0.4125436396
X          X   -0.4028168463    0.8947409901    0.4470790723
H          H   -0.3894385347    0.8959212346    0.5036355254
H          H   -0.1538060269    0.5549766142    0.4155806150
H          H   -0.0835575661    0.6219403721    0.4795523688
O          O   -0.1237073782    0.6781145587    0.4776714857
H          H   -0.1244216103    0.6969787123    0.4605299248
H          H   -0.2906525260    0.6653618466    0.4920444282
H          H   -0.3358824822    0.7131135510    0.4911038289
H          H   -0.2266475089    0.8145549440    0.3901972209
H          H   -0.1811282060    0.7670755802    0.3917863082
O          O   -0.3615479169    0.8368455915    0.3785081439
H          H   -0.3366858457    0.8390227351    0.3731548315
H          H   -0.4095662566    0.8852574784    0.3896828651
C          C    0.3830317474    0.3006831635    0.7227937989
C          C    0.3836615476    0.2738726542    0.6961712188
C          C    0.4012153755    0.2407103599    0.7017792501
C          C    0.4179592964    0.2356545727    0.7352823860
C          C    0.4353001016    0.2025471738    0.7410271005
C          C    0.4521572267    0.1976082836    0.7746386115
C          C    0.4518045087    0.2245534823    0.8011059905
C          C    0.4345256996    0.2578221633    0.7954353362
C          C    0.4175051218    0.2627470347    0.7620496120
C          C    0.4000546241    0.2958186716    0.7563382628
C          C    0.3994019343    0.3244331049    0.7849920236
O          O    0.3813731099    0.3517585415    0.7795210219
N          N    0.4178977686    0.3186730057    0.8160206809
C          C    0.4346314442    0.2869827171    0.8235796032
O          O    0.4501693735    0.2809693753    0.8522212460
C          C    0.4197687140    0.3469278037    0.8421667263
C          C    0.3887017947    0.3589225492    0.8605354022
C          C    0.3913306657    0.3853426169    0.8874228653
X          X    0.4223519097    0.0962331339    0.6024489317
C          C    0.4557514142    0.3893886958    0.8772724008
C          C    0.4532912196    0.3626396890    0.8507166130
C          C    0.4356432542    0.1736994849    0.7125755892
O          O    0.4509889835    0.1451473748    0.7194970811
N          N    0.4188386666    0.1803134550    0.6807160438
C          C    0.4025977570    0.2121571251    0.6730825566
O          O    0.3897022778    0.2191759288    0.6433114153
C          C    0.4192352356    0.1526393916    0.6538710046
C          C    0.4011945668    0.1198101034    0.6601041307
C          C    0.4027549761    0.0919199680    0.6346056860
C          C    0.4403653996    0.1290506512    0.5961570676
C          C    0.4384401707    0.1571250639    0.6213453545
H          H    0.4775378594    0.3539078486    0.8373302257
H          H    0.3864808661    0.1154571104    0.6847539966
X          X    0.4248520219    0.4010243125    0.8958933822
H          H    0.4816664284    0.4009107525    0.8836005686
H          H    0.3890354760    0.0668599123    0.6399837625
H          H    0.4561200871    0.1333343854    0.5722181662
O          O    0.4549765921    0.1887941829    0.6133762581
H          H    0.4383370635    0.2081013189    0.6141245672
H          H    0.4657908350    0.1725998410    0.7802915236
H          H    0.4652633737    0.2195230696    0.8263869944
H          H    0.3692343876    0.3256549449    0.7172117250
H          H    0.3704228551    0.2789915725    0.6708442745
O          O    0.3555574342    0.3457808355    0.8522655168
H          H    0.3507433104    0.3485577507    0.8273529946
H          H    0.3671028181    0.3929833168    0.9013875809
C          C    0.4578295479   -0.2241424944    0.2004229498
C          C    0.4567618757   -0.1969551767    0.2266464440
C          C    0.4370655465   -0.2011264947    0.2588019932
C          C    0.4186383816   -0.2337911820    0.2634750809
C          C    0.3991519042   -0.2381090392    0.2955910955
C          C    0.3806140795   -0.2708797593    0.3001427884
C          C    0.3814199454   -0.2979033939    0.2737654488
C          C    0.4008509100   -0.2936603569    0.2414861535
C          C    0.4195412922   -0.2611216665    0.2369624138
C          C    0.4391336456   -0.2568409347    0.2048892548
C          C    0.4402434792   -0.2860963617    0.1769046506
O          O    0.4600645744   -0.2819580900    0.1506054356
N          N    0.4201332650   -0.3162016276    0.1821300133
C          C    0.4012581685   -0.3223869208    0.2129017607
O          O    0.3841850595   -0.3502251871    0.2185116698
C          C    0.4188120479   -0.3428396942    0.1543070456
C          C    0.4497178133   -0.3627319058    0.1445310937
C          C    0.4475011653   -0.3900402867    0.1185079229
X          X    0.4117321490   -0.0979684673    0.3998820212
C          C    0.3839218445   -0.3773123862    0.1104390878
C          C    0.3859367653   -0.3503213558    0.1367866903
C          C    0.3983284434   -0.2090635535    0.3238307322
O          O    0.3810493188   -0.2147361497    0.3515412883
N          N    0.4168375474   -0.1780761725    0.3176368112
C          C    0.4352333800   -0.1717991875    0.2866812082
O          O    0.4497783485   -0.1427442444    0.2798891543
C          C    0.4159612221   -0.1506580395    0.3447319254
C          C    0.4317582161   -0.1569383504    0.3786891407
C          C    0.4296509366   -0.1308124644    0.4059556525
C          C    0.3959640778   -0.0916303613    0.3659370776
C          C    0.3984592866   -0.1174654707    0.3385026101
H          H    0.3618123698   -0.3357581986    0.1438058030
H          H    0.4451248108   -0.1820800666    0.3843711910
X          X    0.4146286429   -0.3974420733    0.1010162850
H          H    0.3584824939   -0.3828018409    0.0975124953
H          H    0.4416314059   -0.1362237377    0.4318851971
H          H    0.3815248239   -0.0671541600    0.3602753559
O          O    0.3841684736   -0.1094889585    0.3057605764
H          H    0.4018670722   -0.1113358455    0.2874972805
H          H    0.3653050262   -0.2754312342    0.3243950013
H          H    0.3666216579   -0.3224917796    0.2784555675
H          H    0.4732967407   -0.2196678021    0.1762184130
H          H    0.4713477366   -0.1723136346    0.2218540069
O          O    0.4823550865   -0.3555686488    0.1594689798
H          H    0.4883832729   -0.3309418003    0.1565193861
H          H    0.4715179852   -0.4051572672    0.1125874966
C          C    0.6208750743   -0.2984439521    0.7280528153
C          C    0.6200032853   -0.2719536877    0.7011183078
C          C    0.6010159265   -0.2394476219    0.7058258046
C          C    0.5830924123   -0.2347066310    0.7387598387
C          C    0.5643158559   -0.2022456770    0.7436108688
C          C    0.5462805626   -0.1976248020    0.7766512180
C          C    0.5468854772   -0.2242620809    0.8034239605
C          C    0.5656041511   -0.2568858492    0.7986469675
C          C    0.5837953934   -0.2614840013    0.7658369585
C          C    0.6026791236   -0.2939045883    0.7610221072
C          C    0.6035829216   -0.3221755257    0.7900080875
O          O    0.6228141401   -0.3488295194    0.7853848115
N          N    0.5839563948   -0.3168247730    0.8204090920
C          C    0.5657868765   -0.2857373686    0.8271075592
O          O    0.5491763752   -0.2800423995    0.8552071995
C          C    0.5824007546   -0.3448608760    0.8468099755
C          C    0.6133454879   -0.3554415963    0.8662240809
C          C    0.6109394397   -0.3816665005    0.8933226408
X          X    0.5772746745   -0.0969365901    0.6042684673
C          C    0.5470571575   -0.3883338557    0.8813211427
C          C    0.5492720346   -0.3617834711    0.8545453480
C          C    0.5637061148   -0.1737274863    0.7148335093
O          O    0.5470637248   -0.1457279457    0.7209717506
N          N    0.5817014453   -0.1800061164    0.6835618566
C          C    0.5993869744   -0.2112668212    0.6767760646
O          O    0.6134310456   -0.2180814168    0.6474809595
C          C    0.5810357663   -0.1526461670    0.6564020110
C          C    0.5975943150   -0.1190738932    0.6627892386
C          C    0.5957174750   -0.0915297378    0.6369384709
C          C    0.5607445747   -0.1304966432    0.5978231993
C          C    0.5630022360   -0.1582138410    0.6233768460
H          H    0.5251167374   -0.3541449499    0.8403497655
H          H    0.6113830707   -0.1138954527    0.6878114569
X          X    0.5778130740   -0.3985597015    0.9009783718
H          H    0.5214307758   -0.4007952715    0.8870126403
H          H    0.6082870958   -0.0658981787    0.6424323408
H          H    0.5458920999   -0.1356392983    0.5734800552
O          O    0.5479531135   -0.1905858911    0.6152856697
H          H    0.5652993134   -0.2092185675    0.6167458373
H          H    0.5315237239   -0.1731120879    0.7816126119
H          H    0.5324903428   -0.2195024454    0.8282372880
H          H    0.6357919234   -0.3229129006    0.7231666403
H          H    0.6341833218   -0.2768108422    0.6762535735
O          O    0.6461878488   -0.3410989847    0.8587868024
H          H    0.6518501631   -0.3439413760    0.8340607066
H          H    0.6350163093   -0.3882095645    0.9080832250
loop_
