data_placed_structure
_audit_creation_date              2025-02-13
_audit_creation_method            'MOFbuilder_1.0'
_symmetry_space_group_name_H-M    'P1'
_symmetry_Int_Tables_number       1
_symmetry_cell_setting            triclinic
loop_
_symmetry_equiv_pos_as_xyz
  x,y,z
_cell_length_a                    37.84441
_cell_length_b                    37.84441
_cell_length_c                    37.84441
_cell_angle_alpha                 90.0
_cell_angle_beta                  90.0
_cell_angle_gamma                 90.0
loop_
_atom_site_label
_atom_site_type_symbol
_atom_site_fract_x
_atom_site_fract_y
_atom_site_fract_z
O          O   -0.0932607999   -0.0000000013   -0.0521292336
O          O    0.0932608026   -0.0000000013   -0.0521292289
O          O    0.0000000024    0.0521292289   -0.0932608026
O          O    0.0000000024   -0.0521292336   -0.0932607999
O          O    0.0000000013   -0.0932608026   -0.0521292289
O          O    0.0000000013    0.0932607999   -0.0521292336
O          O    0.0521292336   -0.0000000024   -0.0932607999
O          O   -0.0521292289   -0.0000000024   -0.0932608026
Zr        Zr    0.0000000017   -0.0000000017   -0.0655843228
O          O    0.0306835284   -0.0306835284   -0.0306835261
O          O   -0.0306835269    0.0306835269   -0.0306835292
X          X   -0.0840124055   -0.0000000021   -0.0840124098
X          X    0.0840124098   -0.0000000021   -0.0840124055
X          X    0.0000000021    0.0840124055   -0.0840124098
X          X    0.0000000021   -0.0840124098   -0.0840124055
H          H    0.0492278793    0.0492278768   -0.0492278780
O          O    0.0306835284    0.0306835269   -0.0306835276
H          H   -0.0492278768   -0.0492278793   -0.0492278780
O          O   -0.0306835269   -0.0306835284   -0.0306835276
O          O    0.0932607999    0.0000000013    0.0521292336
O          O   -0.0932608026    0.0000000013    0.0521292289
O          O    0.0521292312    0.0932608013   -0.0000000010
O          O    0.0521292312   -0.0932608013    0.0000000037
O          O   -0.0521292312   -0.0932608013    0.0000000010
O          O   -0.0521292312    0.0932608013   -0.0000000037
O          O   -0.0000000024    0.0521292336    0.0932607999
O          O   -0.0000000024   -0.0521292289    0.0932608026
O          O   -0.0000000013    0.0932608026    0.0521292289
O          O   -0.0000000013   -0.0932607999    0.0521292336
O          O    0.0932608013    0.0521292312    0.0000000010
O          O   -0.0932608013    0.0521292312   -0.0000000037
O          O   -0.0932608013   -0.0521292312   -0.0000000010
O          O    0.0932608013   -0.0521292312    0.0000000037
O          O    0.0521292289    0.0000000024    0.0932608026
O          O   -0.0521292336    0.0000000024    0.0932607999
Zr        Zr    0.0655843228   -0.0000000000    0.0000000017
Zr        Zr   -0.0655843228    0.0000000000   -0.0000000017
Zr        Zr    0.0000000000    0.0655843228   -0.0000000017
Zr        Zr   -0.0000000000   -0.0655843228    0.0000000017
Zr        Zr   -0.0000000017    0.0000000017    0.0655843228
O          O   -0.0306835284   -0.0306835269    0.0306835276
O          O    0.0306835269    0.0306835284    0.0306835276
X          X    0.0840124055    0.0000000021    0.0840124098
X          X   -0.0840124098    0.0000000021    0.0840124055
X          X    0.0840124076    0.0840124076   -0.0000000000
X          X    0.0840124076   -0.0840124076    0.0000000043
X          X   -0.0840124076   -0.0840124076   -0.0000000000
X          X   -0.0840124076    0.0840124076   -0.0000000043
X          X   -0.0000000021    0.0840124098    0.0840124055
X          X   -0.0000000021   -0.0840124055    0.0840124098
H          H   -0.0492278793    0.0492278793    0.0492278755
O          O   -0.0306835284    0.0306835284    0.0306835261
H          H    0.0492278768   -0.0492278768    0.0492278805
O          O    0.0306835269   -0.0306835269    0.0306835292
O          O   -0.0932608013    0.5000000000    0.4478707688
O          O    0.0932608013    0.5000000000    0.4478707688
O          O   -0.0000000000    0.5521292312    0.4067391987
O          O   -0.0000000000    0.4478707688    0.4067391987
O          O   -0.0000000000    0.4067391987    0.4478707688
O          O   -0.0000000000    0.5932608013    0.4478707688
O          O    0.0521292312    0.5000000000    0.4067391987
O          O   -0.0521292312    0.5000000000    0.4067391987
Zr        Zr   -0.0000000000    0.5000000000    0.4344156772
O          O    0.0306835276    0.4693164724    0.4693164724
O          O   -0.0306835276    0.5306835276    0.4693164724
X          X   -0.0840124076    0.5000000000    0.4159875924
X          X    0.0840124076    0.5000000000    0.4159875924
X          X   -0.0000000000    0.5840124076    0.4159875924
X          X   -0.0000000000    0.4159875924    0.4159875924
H          H    0.0492278780    0.5492278780    0.4507721220
O          O    0.0306835276    0.5306835276    0.4693164724
H          H   -0.0492278780    0.4507721220    0.4507721220
O          O   -0.0306835276    0.4693164724    0.4693164724
O          O    0.0932608013    0.5000000000    0.5521292312
O          O   -0.0932608013    0.5000000000    0.5521292312
O          O    0.0521292312    0.5932608013    0.5000000000
O          O    0.0521292312    0.4067391987    0.5000000000
O          O   -0.0521292312    0.4067391987    0.5000000000
O          O   -0.0521292312    0.5932608013    0.5000000000
O          O    0.0000000000    0.5521292312    0.5932608013
O          O    0.0000000000    0.4478707688    0.5932608013
O          O    0.0000000000    0.5932608013    0.5521292312
O          O    0.0000000000    0.4067391987    0.5521292312
O          O    0.0932608013    0.5521292312    0.5000000000
O          O   -0.0932608013    0.5521292312    0.5000000000
O          O   -0.0932608013    0.4478707688    0.5000000000
O          O    0.0932608013    0.4478707688    0.5000000000
O          O    0.0521292312    0.5000000000    0.5932608013
O          O   -0.0521292312    0.5000000000    0.5932608013
Zr        Zr    0.0655843228    0.5000000000    0.5000000000
Zr        Zr   -0.0655843228    0.5000000000    0.5000000000
Zr        Zr    0.0000000000    0.5655843228    0.5000000000
Zr        Zr   -0.0000000000    0.4344156772    0.5000000000
Zr        Zr    0.0000000000    0.5000000000    0.5655843228
O          O   -0.0306835276    0.4693164724    0.5306835276
O          O    0.0306835276    0.5306835276    0.5306835276
X          X    0.0840124076    0.5000000000    0.5840124076
X          X   -0.0840124076    0.5000000000    0.5840124076
X          X    0.0840124076    0.5840124076    0.5000000000
X          X    0.0840124076    0.4159875924    0.5000000000
X          X   -0.0840124076    0.4159875924    0.5000000000
X          X   -0.0840124076    0.5840124076    0.5000000000
X          X    0.0000000000    0.5840124076    0.5840124076
X          X    0.0000000000    0.4159875924    0.5840124076
H          H   -0.0492278780    0.5492278780    0.5492278780
O          O   -0.0306835276    0.5306835276    0.5306835276
H          H    0.0492278780    0.4507721220    0.5492278780
O          O    0.0306835276    0.4693164724    0.5306835276
O          O    0.4067391987    0.0000000000    0.4478707688
O          O    0.5932608013    0.0000000000    0.4478707688
O          O    0.5000000000    0.0521292312    0.4067391987
O          O    0.5000000000   -0.0521292312    0.4067391987
O          O    0.5000000000   -0.0932608013    0.4478707688
O          O    0.5000000000    0.0932608013    0.4478707688
O          O    0.5521292312    0.0000000000    0.4067391987
O          O    0.4478707688    0.0000000000    0.4067391987
Zr        Zr    0.5000000000    0.0000000000    0.4344156772
O          O    0.5306835276   -0.0306835276    0.4693164724
O          O    0.4693164724    0.0306835276    0.4693164724
X          X    0.4159875924    0.0000000000    0.4159875924
X          X    0.5840124076    0.0000000000    0.4159875924
X          X    0.5000000000    0.0840124076    0.4159875924
X          X    0.5000000000   -0.0840124076    0.4159875924
H          H    0.5492278780    0.0492278780    0.4507721220
O          O    0.5306835276    0.0306835276    0.4693164724
H          H    0.4507721220   -0.0492278780    0.4507721220
O          O    0.4693164724   -0.0306835276    0.4693164724
O          O    0.5932608013   -0.0000000000    0.5521292312
O          O    0.4067391987   -0.0000000000    0.5521292312
O          O    0.5521292312    0.0932608013    0.5000000000
O          O    0.5521292312   -0.0932608013    0.5000000000
O          O    0.4478707688   -0.0932608013    0.5000000000
O          O    0.4478707688    0.0932608013    0.5000000000
O          O    0.5000000000    0.0521292312    0.5932608013
O          O    0.5000000000   -0.0521292312    0.5932608013
O          O    0.5000000000    0.0932608013    0.5521292312
O          O    0.5000000000   -0.0932608013    0.5521292312
O          O    0.5932608013    0.0521292312    0.5000000000
O          O    0.4067391987    0.0521292312    0.5000000000
O          O    0.4067391987   -0.0521292312    0.5000000000
O          O    0.5932608013   -0.0521292312    0.5000000000
O          O    0.5521292312   -0.0000000000    0.5932608013
O          O    0.4478707688   -0.0000000000    0.5932608013
Zr        Zr    0.5655843228    0.0000000000    0.5000000000
Zr        Zr    0.4344156772    0.0000000000    0.5000000000
Zr        Zr    0.5000000000    0.0655843228    0.5000000000
Zr        Zr    0.5000000000   -0.0655843228    0.5000000000
Zr        Zr    0.5000000000   -0.0000000000    0.5655843228
O          O    0.4693164724   -0.0306835276    0.5306835276
O          O    0.5306835276    0.0306835276    0.5306835276
X          X    0.5840124076   -0.0000000000    0.5840124076
X          X    0.4159875924   -0.0000000000    0.5840124076
X          X    0.5840124076    0.0840124076    0.5000000000
X          X    0.5840124076   -0.0840124076    0.5000000000
X          X    0.4159875924   -0.0840124076    0.5000000000
X          X    0.4159875924    0.0840124076    0.5000000000
X          X    0.5000000000    0.0840124076    0.5840124076
X          X    0.5000000000   -0.0840124076    0.5840124076
H          H    0.4507721220    0.0492278780    0.5492278780
O          O    0.4693164724    0.0306835276    0.5306835276
H          H    0.5492278780   -0.0492278780    0.5492278780
O          O    0.5306835276   -0.0306835276    0.5306835276
O          O    0.4067391934    0.4999999899   -0.0521292217
O          O    0.5932607960    0.4999999994   -0.0521292407
O          O    0.4999999878    0.5521292217   -0.0932608066
O          O    0.4999999932    0.4478707593   -0.0932607960
O          O    0.4999999994    0.4067391934   -0.0521292217
O          O    0.4999999899    0.5932607960   -0.0521292407
O          O    0.5521292217    0.4999999932   -0.0932608066
O          O    0.4478707593    0.4999999878   -0.0932607960
Zr        Zr    0.4999999933    0.4999999933   -0.0655843228
O          O    0.5306835261    0.4693164708   -0.0306835276
O          O    0.4693164677    0.5306835229   -0.0306835276
X          X    0.4159875838    0.4999999872   -0.0840123991
X          X    0.5840123991    0.4999999957   -0.0840124162
X          X    0.4999999872    0.5840123991   -0.0840124162
X          X    0.4999999957    0.4159875838   -0.0840123991
H          H    0.5492278705    0.5492278755   -0.0492278881
O          O    0.5306835229    0.5306835261   -0.0306835339
H          H    0.4507721195    0.4507721144   -0.0492278680
O          O    0.4693164708    0.4693164677   -0.0306835214
O          O    0.5932608066    0.5000000101    0.0521292217
O          O    0.4067392040    0.5000000006    0.0521292407
O          O    0.5521292265    0.5932608039   -0.0000000148
O          O    0.5521292360    0.4067392014    0.0000000042
O          O    0.4478707735    0.4067391961    0.0000000148
O          O    0.4478707640    0.5932607986   -0.0000000042
O          O    0.5000000068    0.5521292407    0.0932607960
O          O    0.5000000122    0.4478707783    0.0932608066
O          O    0.5000000006    0.5932608066    0.0521292217
O          O    0.5000000101    0.4067392040    0.0521292407
O          O    0.5932607986    0.5521292360   -0.0000000148
O          O    0.4067391961    0.5521292265    0.0000000042
O          O    0.4067392014    0.4478707640    0.0000000148
O          O    0.5932608039    0.4478707735   -0.0000000042
O          O    0.5521292407    0.5000000122    0.0932607960
O          O    0.4478707783    0.5000000068    0.0932608066
Zr        Zr    0.5655843228    0.5000000033   -0.0000000067
Zr        Zr    0.4344156772    0.4999999967    0.0000000067
Zr        Zr    0.4999999967    0.5655843228   -0.0000000067
Zr        Zr    0.5000000033    0.4344156772    0.0000000067
Zr        Zr    0.5000000067    0.5000000067    0.0655843228
O          O    0.4693164771    0.4693164739    0.0306835339
O          O    0.5306835292    0.5306835323    0.0306835214
X          X    0.5840124162    0.5000000128    0.0840123991
X          X    0.4159876009    0.5000000043    0.0840124162
X          X    0.5840124034    0.5840124119   -0.0000000171
X          X    0.5840124119    0.4159875966    0.0000000000
X          X    0.4159875966    0.4159875881    0.0000000171
X          X    0.4159875881    0.5840124034   -0.0000000000
X          X    0.5000000043    0.5840124162    0.0840123991
X          X    0.5000000128    0.4159876009    0.0840124162
H          H    0.4507721245    0.5492278805    0.0492278780
O          O    0.4693164739    0.5306835292    0.0306835276
H          H    0.5492278856    0.4507721295    0.0492278780
O          O    0.5306835323    0.4693164771    0.0306835276
C          C   -0.0499440488    0.2368371943    0.2893725814
C          C   -0.0505308961    0.2111312239    0.2625160408
C          C   -0.0247175559    0.2104261271    0.2355607084
C          C    0.0017074075    0.2365577421    0.2368568789
C          C    0.0275894408    0.2357985362    0.2101408967
C          C    0.0540064030    0.2621194270    0.2114704838
C          C    0.0543793283    0.2880052884    0.2381344522
C          C    0.0284369892    0.2889218681    0.2649266564
C          C    0.0021966070    0.2625934699    0.2638072398
C          C   -0.0236325870    0.2632757165    0.2905956776
C          C   -0.0228373035    0.2908454532    0.3193569188
O          O   -0.0445519119    0.2885071990    0.3436369473
N          N    0.0022393261    0.3166231387    0.3179261843
C          C    0.0284657657    0.3170259795    0.2932147961
O          O    0.0521558183    0.3394157299    0.2925888122
C          C    0.0013936789    0.3445259545    0.3435930325
C          C    0.0075835748    0.3377483600    0.3798704298
C          C    0.0084806453    0.3656797007    0.4043930394
X          X    0.0025778404    0.1064805276    0.0990233172
C          C   -0.0043015613    0.4075456000    0.3573067354
C          C   -0.0047469525    0.3797421603    0.3326484027
C          C    0.0271100348    0.2080029100    0.1815646568
O          O    0.0508061477    0.2086098408    0.1591658747
N          N    0.0007884230    0.1833968604    0.1818905988
C          C   -0.0256171118    0.1833741209    0.2063075733
O          O   -0.0509088023    0.1627431939    0.2051128684
C          C    0.0006433426    0.1570047431    0.1546383871
C          C    0.0282400795    0.1318869870    0.1527406765
C          C    0.0291442500    0.1068822232    0.1251946625
C          C   -0.0250512478    0.1315441630    0.1009064090
C          C   -0.0262845649    0.1562258037    0.1286576222
H          H   -0.0093351314    0.3858089139    0.3051060006
H          H    0.0493049404    0.1319119598    0.1720393322
X          X    0.0023044741    0.4008408445    0.3933965699
H          H   -0.0088221364    0.4343312268    0.3483874634
H          H    0.0506466791    0.0880564419    0.1239975655
H          H   -0.0456114910    0.1325712118    0.0811814986
O          O   -0.0542525536    0.1788670682    0.1301807929
H          H   -0.0661575738    0.1768058314    0.1521690249
H          H    0.0744631758    0.2625798248    0.1915289493
H          H    0.0751118440    0.3077211326    0.2379044885
H          H   -0.0703184631    0.2362804425    0.3094408101
H          H   -0.0713659910    0.1915883829    0.2626191041
O          O    0.0121528501    0.3041613945    0.3920340060
H          H   -0.0071627576    0.2896011818    0.3852777344
H          H    0.0142215257    0.3593969492    0.4316170490
C          C    0.2278547362    0.2983550493    0.0372725700
C          C    0.2011570815    0.2724901929    0.0364604629
C          C    0.2055468636    0.2404399766    0.0178344303
C          C    0.2379150009    0.2354996199    0.0002072747
C          C    0.2424463427    0.2034930851   -0.0182114228
C          C    0.2749199742    0.1986699265   -0.0359487672
C          C    0.3014595585    0.2246801720   -0.0353994970
C          C    0.2970022710    0.2568462484   -0.0170380320
C          C    0.2647551030    0.2616456065    0.0008527931
C          C    0.2602590586    0.2936123403    0.0193770107
C          C    0.2889883841    0.3212139928    0.0202175425
O          O    0.2846379651    0.3475061906    0.0390936020
N          N    0.3188597322    0.3156895908    0.0009158077
C          C    0.3252189762    0.2850217942   -0.0169079798
O          O    0.3528235051    0.2791810275   -0.0332415894
C          C    0.3450438172    0.3430751695   -0.0006631494
C          C    0.3642243093    0.3533944830    0.0297657948
C          C    0.3910813587    0.3789913835    0.0273532254
X          X    0.1045654177    0.1009384262   -0.0052794295
C          C    0.3793218839    0.3855304480   -0.0355134091
C          C    0.3527799792    0.3596105807   -0.0332883759
C          C    0.2139204439    0.1756471178   -0.0187621995
O          O    0.2197514598    0.1480242460   -0.0350887358
N          N    0.1831993464    0.1820881126   -0.0010670330
C          C    0.1767554660    0.2129262329    0.0162802485
O          O    0.1479830158    0.2198730556    0.0300867627
C          C    0.1562735203    0.1553696096   -0.0016748449
C          C    0.1623085170    0.1223191450    0.0146753377
C          C    0.1366693004    0.0954075836    0.0128761562
C          C    0.0984732248    0.1339773476   -0.0216015994
C          C    0.1238213972    0.1610620294   -0.0194280179
H          H    0.3387559241    0.3521589850   -0.0570421209
H          H    0.1868894232    0.1170618664    0.0282513154
X          X    0.3987389434    0.3954984701   -0.0052696340
H          H    0.3850140218    0.3977046626   -0.0607492345
H          H    0.1418843069    0.0701696977    0.0252878589
H          H    0.0745601762    0.1391925352   -0.0362241315
O          O    0.1161009918    0.1929468715   -0.0342909748
H          H    0.1176763843    0.2112984775   -0.0172557981
H          H    0.2796190422    0.1744897180   -0.0504260801
H          H    0.3258376845    0.2197879227   -0.0495549723
H          H    0.2232293524    0.3224919138    0.0519073959
H          H    0.1767290989    0.2774784018    0.0504041306
O          O    0.3568006163    0.3393947899    0.0621048190
H          H    0.3324939505    0.3423849741    0.0676711912
H          H    0.4056531713    0.3853608310    0.0510316922
C          C    0.2278547283    0.2016449512    0.4627274386
C          C    0.2011570767    0.2275098108    0.4635395457
C          C    0.2055468626    0.2595600265    0.4821655783
C          C    0.2379150005    0.2645003794    0.4997927339
C          C    0.2424463461    0.2965069137    0.5182114313
C          C    0.2749199782    0.3013300683    0.5359487758
C          C    0.3014595594    0.2753198197    0.5353995056
C          C    0.2970022680    0.2431537439    0.5170380406
C          C    0.2647550995    0.2383543896    0.4991472155
C          C    0.2602590513    0.2063876564    0.4806229978
C          C    0.2889883734    0.1787860004    0.4797824660
O          O    0.2846379513    0.1524938031    0.4609064066
N          N    0.3188597222    0.1843103989    0.4990842009
C          C    0.3252189698    0.2149781946    0.5169079883
O          O    0.3528234994    0.2208189581    0.5332415979
C          C    0.3450438040    0.1569248170    0.5006631580
C          C    0.3642242948    0.1466055013    0.4702342137
C          C    0.3910813412    0.1210085975    0.4726467832
X          X    0.1045654334    0.3990615890    0.5052794380
C          C    0.3793218656    0.1144695344    0.5355134177
C          C    0.3527799640    0.1403894049    0.5332883845
C          C    0.2139204506    0.3243528844    0.5187622081
O          O    0.2197514699    0.3519757554    0.5350887443
N          N    0.1831993524    0.3179118933    0.5010670415
C          C    0.1767554683    0.2870737737    0.4837197601
O          O    0.1479830173    0.2801269545    0.4699132459
C          C    0.1562735295    0.3446303994    0.5016748534
C          C    0.1623085301    0.3776808634    0.4853246709
C          C    0.1366693167    0.4045924278    0.4871238524
C          C    0.0984732365    0.3660226684    0.5216016079
C          C    0.1238214057    0.3389379835    0.5194280265
H          H    0.3387559097    0.1478410022    0.5570421295
H          H    0.1868894369    0.3829381390    0.4717486931
X          X    0.3987389239    0.1045015100    0.5052696426
H          H    0.3850140020    0.1022953191    0.5607492431
H          H    0.1418843262    0.4298303131    0.4747121497
H          H    0.0745601873    0.3608074836    0.5362241400
O          O    0.1161009965    0.3070531424    0.5342909833
H          H    0.1176763868    0.2887015362    0.5172558066
H          H    0.2796190490    0.3255102764    0.5504260887
H          H    0.3258376859    0.2802120661    0.5495549808
H          H    0.2232293416    0.1775080873    0.4480926127
H          H    0.1767290934    0.2225216048    0.4495958780
O          O    0.3568006034    0.1606051952    0.4378951895
H          H    0.3324939374    0.1576150139    0.4323288173
H          H    0.4056531530    0.1146391483    0.4489683164
C          C    0.5382008932    0.2978545947    0.2716448204
C          C    0.5373999724    0.2720004299    0.2983531667
C          C    0.5182939972    0.2402004118    0.2942135770
C          C    0.5001752066    0.2354970883    0.2620824671
C          C    0.4812752322    0.2037380109    0.2577985769
C          C    0.4630464273    0.1991533458    0.2255634330
C          C    0.4635885816    0.2251563583    0.1990166156
C          C    0.4824324672    0.2570757287    0.2032272030
C          C    0.5008114071    0.2616345802    0.2352338702
C          C    0.5198158873    0.2933524639    0.2394810703
C          C    0.5206413177    0.3209430742    0.2107407024
O          O    0.5399203987    0.3469822681    0.2148381223
N          N    0.5008736065    0.3156777428    0.1811284194
C          C    0.4825619509    0.2852495581    0.1750087813
O          O    0.4657877073    0.2796283309    0.1476237867
C          C    0.4993108597    0.3430841581    0.1549651710
C          C    0.5296169478    0.3530007461    0.1353819521
C          C    0.5271880923    0.3786297540    0.1085570098
X          X    0.4946734003    0.1010087372    0.3955048927
C          C    0.4645751641    0.3860008601    0.1211485292
C          C    0.4668080545    0.3600514285    0.1476608697
C          C    0.4807335686    0.1758992829    0.2863317152
O          O    0.4639662831    0.1484958542    0.2807201370
N          N    0.4989184168    0.1821023557    0.3168148965
C          C    0.5167570312    0.2127071606    0.3230254674
O          O    0.5310347782    0.2194677545    0.3516116945
C          C    0.4983134610    0.1553918902    0.3437487602
C          C    0.5141424694    0.1221280493    0.3375003809
C          C    0.5123267322    0.0952404540    0.3631635635
C          C    0.4788730049    0.1342606593    0.4018100927
C          C    0.4810692314    0.1613163694    0.3764329488
H          H    0.4431456420    0.3529142428    0.1619993360
H          H    0.5273203860    0.1166933721    0.3127420713
X          X    0.4946883201    0.3955686640    0.1013312500
H          H    0.4394297332    0.3985091491    0.1157904669
H          H    0.5243324269    0.0698406595    0.3577866434
H          H    0.4646393037    0.1396671863    0.4259144852
O          O    0.4667340798    0.1933948203    0.3843469692
H          H    0.4839887243    0.2115190538    0.3825442070
H          H    0.4481887024    0.1751676559    0.2210588791
H          H    0.4490474515    0.2204543974    0.1748287735
H          H    0.5532145516    0.3217948621    0.2760736115
H          H    0.5517312658    0.2768011462    0.3225936615
O          O    0.5618630828    0.3385727937    0.1423773846
H          H    0.5677904501    0.3414867600    0.1666078368
H          H    0.5507536263    0.3846859332    0.0936719275
C          C    0.2278547330   -0.0372725603    0.2983550525
C          C    0.2011570783   -0.0364604533    0.2724901961
C          C    0.2055468604   -0.0178344207    0.2404399798
C          C    0.2379149977   -0.0002072651    0.2354996231
C          C    0.2424463395    0.0182114324    0.2034930883
C          C    0.2749199710    0.0359487768    0.1986699297
C          C    0.3014595553    0.0353995067    0.2246801752
C          C    0.2970022678    0.0170380417    0.2568462516
C          C    0.2647550998   -0.0008527835    0.2616456097
C          C    0.2602590554   -0.0193770011    0.2936123435
C          C    0.2889883808   -0.0202175329    0.3212139960
O          O    0.2846379619   -0.0390935923    0.3475061939
N          N    0.3188597290   -0.0009157981    0.3156895940
C          C    0.3252189730    0.0169079894    0.2850217975
O          O    0.3528235018    0.0332415990    0.2791810307
C          C    0.3450438140    0.0006631591    0.3430751727
C          C    0.3642243061   -0.0297657852    0.3533944862
C          C    0.3910813555   -0.0273532158    0.3789913867
X          X    0.1045654145    0.0052794391    0.1009384294
C          C    0.3793218807    0.0355134188    0.3855304512
C          C    0.3527799760    0.0332883856    0.3596105839
C          C    0.2139204407    0.0187622091    0.1756471210
O          O    0.2197514566    0.0350887454    0.1480242492
N          N    0.1831993432    0.0010670426    0.1820881158
C          C    0.1767554628   -0.0162802388    0.2129262361
O          O    0.1479830126   -0.0300867531    0.2198730588
C          C    0.1562735171    0.0016748545    0.1553696128
C          C    0.1623085138   -0.0146753280    0.1223191482
C          C    0.1366692971   -0.0128761466    0.0954075868
C          C    0.0984732216    0.0216016090    0.1339773508
C          C    0.1238213940    0.0194280276    0.1610620326
H          H    0.3387559208    0.0570421305    0.3521589882
H          H    0.1868894199   -0.0282513058    0.1170618696
X          X    0.3987389402    0.0052696437    0.3954984733
H          H    0.3850140186    0.0607492441    0.3977046658
H          H    0.1418843037   -0.0252878493    0.0701697009
H          H    0.0745601730    0.0362241411    0.1391925384
O          O    0.1161009886    0.0342909844    0.1929468747
H          H    0.1176763811    0.0172558077    0.2112984807
H          H    0.2796190390    0.0504260897    0.1744897212
H          H    0.3258376813    0.0495549819    0.2197879259
H          H    0.2232293492   -0.0519073863    0.3224919170
H          H    0.1767290957   -0.0504041210    0.2774784050
O          O    0.3568006131   -0.0621048094    0.3393947931
H          H    0.3324939473   -0.0676711816    0.3423849773
H          H    0.4056531681   -0.0510316826    0.3853608342
C          C   -0.2278547372    0.0372725614    0.2983550482
C          C   -0.2011570826    0.0364604543    0.2724901918
C          C   -0.2055468647    0.0178344217    0.2404399756
C          C   -0.2379150020    0.0002072661    0.2354996188
C          C   -0.2424463438   -0.0182114313    0.2034930840
C          C   -0.2749199752   -0.0359487758    0.1986699255
C          C   -0.3014595596   -0.0353995056    0.2246801709
C          C   -0.2970022721   -0.0170380406    0.2568462473
C          C   -0.2647551041    0.0008527845    0.2616456055
C          C   -0.2602590597    0.0193770022    0.2936123392
C          C   -0.2889883851    0.0202175340    0.3212139917
O          O   -0.2846379661    0.0390935934    0.3475061896
N          N   -0.3188597332    0.0009157991    0.3156895897
C          C   -0.3252189772   -0.0169079883    0.2850217932
O          O   -0.3528235061   -0.0332415979    0.2791810264
C          C   -0.3450438183   -0.0006631580    0.3430751684
C          C   -0.3642243104    0.0297657863    0.3533944819
C          C   -0.3910813598    0.0273532168    0.3789913824
X          X   -0.1045654188   -0.0052794380    0.1009384252
C          C   -0.3793218850   -0.0355134177    0.3855304469
C          C   -0.3527799803   -0.0332883845    0.3596105796
C          C   -0.2139204449   -0.0187622081    0.1756471167
O          O   -0.2197514609   -0.0350887443    0.1480242450
N          N   -0.1831993475   -0.0010670415    0.1820881115
C          C   -0.1767554671    0.0162802399    0.2129262318
O          O   -0.1479830169    0.0300867541    0.2198730545
C          C   -0.1562735214   -0.0016748534    0.1553696086
C          C   -0.1623085181    0.0146753291    0.1223191439
C          C   -0.1366693014    0.0128761476    0.0954075825
C          C   -0.0984732259   -0.0216016079    0.1339773465
C          C   -0.1238213983   -0.0194280265    0.1610620283
H          H   -0.3387559251   -0.0570421295    0.3521589839
H          H   -0.1868894242    0.0282513069    0.1170618654
X          X   -0.3987389445   -0.0052696426    0.3954984690
H          H   -0.3850140229   -0.0607492431    0.3977046615
H          H   -0.1418843080    0.0252878503    0.0701696966
H          H   -0.0745601773   -0.0362241400    0.1391925342
O          O   -0.1161009929   -0.0342909833    0.1929468704
H          H   -0.1176763854   -0.0172558066    0.2112984764
H          H   -0.2796190432   -0.0504260887    0.1744897169
H          H   -0.3258376855   -0.0495549808    0.2197879216
H          H   -0.2232293535    0.0519073873    0.3224919127
H          H   -0.1767290999    0.0504041220    0.2774784008
O          O   -0.3568006173    0.0621048105    0.3393947889
H          H   -0.3324939516    0.0676711827    0.3423849730
H          H   -0.4056531724    0.0510316836    0.3853608299
C          C   -0.2278547340    0.2983550514   -0.0372725635
C          C   -0.2011570794    0.2724901950   -0.0364604565
C          C   -0.2055468615    0.2404399788   -0.0178344239
C          C   -0.2379149987    0.2354996220   -0.0002072683
C          C   -0.2424463406    0.2034930872    0.0182114292
C          C   -0.2749199720    0.1986699287    0.0359487736
C          C   -0.3014595564    0.2246801741    0.0353995034
C          C   -0.2970022689    0.2568462505    0.0170380384
C          C   -0.2647551009    0.2616456087   -0.0008527867
C          C   -0.2602590565    0.2936123424   -0.0193770043
C          C   -0.2889883819    0.3212139949   -0.0202175361
O          O   -0.2846379629    0.3475061928   -0.0390935956
N          N   -0.3188597300    0.3156895929   -0.0009158013
C          C   -0.3252189740    0.2850217964    0.0169079862
O          O   -0.3528235029    0.2791810296    0.0332415958
C          C   -0.3450438151    0.3430751716    0.0006631559
C          C   -0.3642243072    0.3533944851   -0.0297657884
C          C   -0.3910813566    0.3789913856   -0.0273532190
X          X   -0.1045654156    0.1009384284    0.0052794359
C          C   -0.3793218818    0.3855304502    0.0355134156
C          C   -0.3527799771    0.3596105828    0.0332883823
C          C   -0.2139204417    0.1756471199    0.0187622059
O          O   -0.2197514577    0.1480242482    0.0350887422
N          N   -0.1831993443    0.1820881147    0.0010670394
C          C   -0.1767554639    0.2129262350   -0.0162802420
O          O   -0.1479830137    0.2198730577   -0.0300867563
C          C   -0.1562735182    0.1553696118    0.0016748513
C          C   -0.1623085149    0.1223191471   -0.0146753313
C          C   -0.1366692982    0.0954075857   -0.0128761498
C          C   -0.0984732227    0.1339773497    0.0216016058
C          C   -0.1238213951    0.1610620315    0.0194280244
H          H   -0.3387559219    0.3521589872    0.0570421273
H          H   -0.1868894210    0.1170618686   -0.0282513090
X          X   -0.3987389413    0.3954984722    0.0052696404
H          H   -0.3850140197    0.3977046647    0.0607492409
H          H   -0.1418843048    0.0701696999   -0.0252878525
H          H   -0.0745601741    0.1391925374    0.0362241379
O          O   -0.1161009897    0.1929468736    0.0342909812
H          H   -0.1176763822    0.2112984796    0.0172558045
H          H   -0.2796190400    0.1744897201    0.0504260865
H          H   -0.3258376823    0.2197879248    0.0495549787
H          H   -0.2232293503    0.3224919159   -0.0519073895
H          H   -0.1767290967    0.2774784040   -0.0504041242
O          O   -0.3568006141    0.3393947921   -0.0621048126
H          H   -0.3324939484    0.3423849762   -0.0676711848
H          H   -0.4056531692    0.3853608331   -0.0510316858
C          C    0.0382008857   -0.2978545893    0.2283551850
C          C    0.0373999649   -0.2720004245    0.2016468386
C          C    0.0182939897   -0.2402004064    0.2057864283
C          C    0.0001751991   -0.2354970830    0.2379175382
C          C   -0.0187247753   -0.2037380056    0.2422014284
C          C   -0.0369535801   -0.1991533404    0.2744365724
C          C   -0.0364114259   -0.2251563529    0.3009833897
C          C   -0.0175675402   -0.2570757234    0.2967728024
C          C    0.0008113996   -0.2616345749    0.2647661352
C          C    0.0198158798   -0.2933524586    0.2605189351
C          C    0.0206413102   -0.3209430688    0.2892593030
O          O    0.0399203912   -0.3469822627    0.2851618831
N          N    0.0008735991   -0.3156777374    0.3188715860
C          C   -0.0174380566   -0.2852495528    0.3249912240
O          O   -0.0342123002   -0.2796283255    0.3523762187
C          C   -0.0006891477   -0.3430841527    0.3450348343
C          C    0.0296169403   -0.3530007408    0.3646180533
C          C    0.0271880848   -0.3786297487    0.3914429956
X          X   -0.0053266072   -0.1010087319    0.1044951126
C          C   -0.0354248434   -0.3860008548    0.3788514761
C          C   -0.0331919529   -0.3600514231    0.3523391356
C          C   -0.0192664389   -0.1758992776    0.2136682901
O          O   -0.0360337244   -0.1484958488    0.2192798684
N          N   -0.0010815907   -0.1821023504    0.1831851088
C          C    0.0167570237   -0.2127071552    0.1769745380
O          O    0.0310347707   -0.2194677492    0.1483883109
C          C   -0.0016865465   -0.1553918849    0.1562512452
C          C    0.0141424619   -0.1221280439    0.1624996245
C          C    0.0123267247   -0.0952404487    0.1368364419
C          C   -0.0211270026   -0.1342606540    0.0981899127
C          C   -0.0189307761   -0.1613163641    0.1235670566
H          H   -0.0568543655   -0.3529142374    0.3380006694
H          H    0.0273203785   -0.1166933667    0.1872579341
X          X   -0.0053116874   -0.3955686587    0.3986687554
H          H   -0.0605702742   -0.3985091437    0.3842095385
H          H    0.0243324194   -0.0698406541    0.1422133620
H          H   -0.0353607038   -0.1396671809    0.0740855202
O          O   -0.0332659277   -0.1933948149    0.1156530361
H          H   -0.0160112832   -0.2115190485    0.1174557984
H          H   -0.0518113051   -0.1751676505    0.2789411262
H          H   -0.0509525560   -0.2204543921    0.3251712318
H          H    0.0532145442   -0.3217948567    0.2239263938
H          H    0.0517312583   -0.2768011409    0.1774063439
O          O    0.0618630753   -0.3385727883    0.3576226208
H          H    0.0677904426   -0.3414867547    0.3333921685
H          H    0.0507536188   -0.3846859278    0.4063280778
C          C    0.2278547283   -0.2983550488   -0.0372725593
C          C    0.2011570767   -0.2724901892   -0.0364604522
C          C    0.2055468626   -0.2404399735   -0.0178344196
C          C    0.2379150005   -0.2354996206   -0.0002072640
C          C    0.2424463461   -0.2034930863    0.0182114335
C          C    0.2749199782   -0.1986699317    0.0359487779
C          C    0.3014595594   -0.2246801803    0.0353995077
C          C    0.2970022680   -0.2568462561    0.0170380427
C          C    0.2647550995   -0.2616456104   -0.0008527824
C          C    0.2602590513   -0.2936123436   -0.0193770000
C          C    0.2889883734   -0.3212139996   -0.0202175318
O          O    0.2846379513   -0.3475061969   -0.0390935913
N          N    0.3188597222   -0.3156896011   -0.0009157970
C          C    0.3252189698   -0.2850218054    0.0169079905
O          O    0.3528234994   -0.2791810419    0.0332416001
C          C    0.3450438040   -0.3430751830    0.0006631601
C          C    0.3642242948   -0.3533944987   -0.0297657841
C          C    0.3910813412   -0.3789914025   -0.0273532147
X          X    0.1045654334   -0.1009384110    0.0052794402
C          C    0.3793218656   -0.3855304656    0.0355134198
C          C    0.3527799640   -0.3596105951    0.0332883866
C          C    0.2139204506   -0.1756471156    0.0187622102
O          O    0.2197514699   -0.1480242446    0.0350887465
N          N    0.1831993524   -0.1820881067    0.0010670437
C          C    0.1767554683   -0.2129262263   -0.0162802378
O          O    0.1479830173   -0.2198730455   -0.0300867520
C          C    0.1562735295   -0.1553696006    0.0016748556
C          C    0.1623085301   -0.1223191366   -0.0146753270
C          C    0.1366693167   -0.0954075722   -0.0128761455
C          C    0.0984732365   -0.1339773316    0.0216016101
C          C    0.1238214057   -0.1610620165    0.0194280286
H          H    0.3387559097   -0.3521589978    0.0570421316
H          H    0.1868894369   -0.1170618610   -0.0282513047
X          X    0.3987389239   -0.3954984900    0.0052696447
H          H    0.3850140020   -0.3977046809    0.0607492452
H          H    0.1418843262   -0.0701696869   -0.0252878482
H          H    0.0745601873   -0.1391925164    0.0362241422
O          O    0.1161009965   -0.1929468576    0.0342909855
H          H    0.1176763868   -0.2112984638    0.0172558088
H          H    0.2796190490   -0.1744897236    0.0504260908
H          H    0.3258376859   -0.2197879339    0.0495549830
H          H    0.2232293416   -0.3224919127   -0.0519073852
H          H    0.1767290934   -0.2774783952   -0.0504041199
O          O    0.3568006034   -0.3393948048   -0.0621048083
H          H    0.3324939374   -0.3423849861   -0.0676711805
H          H    0.4056531530   -0.3853608517   -0.0510316815
C          C   -0.2274474680   -0.2987623062    0.0364895660
C          C   -0.2007588353   -0.2728884277    0.0356683624
C          C   -0.2053520660   -0.2406347687    0.0174469643
C          C   -0.2379125652   -0.2355020560    0.0002339110
C          C   -0.2426450603   -0.2032943737   -0.0177790966
C          C   -0.2753122711   -0.1982776419   -0.0351024544
C          C   -0.3018457541   -0.2242939887   -0.0345474064
C          C   -0.2971879504   -0.2566605754   -0.0165925683
C          C   -0.2647454932   -0.2616552169    0.0008870149
C          C   -0.2600471258   -0.2938242677    0.0190063590
C          C   -0.2887670971   -0.3214352746    0.0198592399
O          O   -0.2842101163   -0.3479340294    0.0383946479
N          N   -0.3188494142   -0.3156999092    0.0009506914
C          C   -0.3254032126   -0.2848375643   -0.0164620775
O          O   -0.3531860560   -0.2788184883   -0.0324243991
C          C   -0.3450510027   -0.3430679843   -0.0006413399
C          C   -0.3638949625   -0.3537238315    0.0298817376
C          C   -0.3907785701   -0.3792941740    0.0274833766
X          X   -0.1046235127   -0.1008803318   -0.0052387456
C          C   -0.3797143710   -0.3851379600   -0.0355776416
C          C   -0.3531479399   -0.3592426189   -0.0333597481
C          C   -0.2141252889   -0.1754422789   -0.0183373138
O          O   -0.2201345442   -0.1476411731   -0.0342924680
N          N   -0.1832110694   -0.1820763898   -0.0010546413
C          C   -0.1765779117   -0.2131037814    0.0158788644
O          O   -0.1476551891   -0.2202008708    0.0292892900
C          C   -0.1562919716   -0.1553511585   -0.0016646683
C          C   -0.1621440551   -0.1224836132    0.0151150947
C          C   -0.1365246314   -0.0955522591    0.0133301817
C          C   -0.0987139264   -0.1337366404   -0.0219910035
C          C   -0.1240382001   -0.1608452206   -0.0198368613
H          H   -0.3393865709   -0.3515283362   -0.0571831686
H          H   -0.1865732397   -0.1173780609    0.0290188846
X          X   -0.3987969070   -0.3954405071   -0.0052332197
H          H   -0.3856855512   -0.3970331313   -0.0608819639
H          H   -0.1416007378   -0.0704532782    0.0260766259
H          H   -0.0749641119   -0.1387885893   -0.0369333809
O          O   -0.1164843180   -0.1925635331   -0.0351353193
H          H   -0.1178726312   -0.2111022157   -0.0182874594
H          H   -0.2801694380   -0.1739393390   -0.0492591228
H          H   -0.3263783983   -0.2192472258   -0.0483779580
H          H   -0.2226622390   -0.3230590114    0.0508050204
H          H   -0.1761786820   -0.2780288026    0.0492855222
O          O   -0.3561137895   -0.3400816193    0.0622894296
H          H   -0.3317473246   -0.3431315983    0.0675537166
H          H   -0.4050884286   -0.3859255768    0.0512495252
C          C    0.0382008879    0.2978545893   -0.2283551850
C          C    0.0373999670    0.2720004245   -0.2016468386
C          C    0.0182939918    0.2402004064   -0.2057864283
C          C    0.0001752013    0.2354970830   -0.2379175382
C          C   -0.0187247732    0.2037380056   -0.2422014284
C          C   -0.0369535780    0.1991533404   -0.2744365724
C          C   -0.0364114238    0.2251563529   -0.3009833897
C          C   -0.0175675381    0.2570757234   -0.2967728024
C          C    0.0008114018    0.2616345749   -0.2647661352
C          C    0.0198158819    0.2933524586   -0.2605189351
C          C    0.0206413123    0.3209430688   -0.2892593030
O          O    0.0399203933    0.3469822627   -0.2851618831
N          N    0.0008736012    0.3156777374   -0.3188715860
C          C   -0.0174380545    0.2852495528   -0.3249912240
O          O   -0.0342122980    0.2796283255   -0.3523762187
C          C   -0.0006891456    0.3430841527   -0.3450348343
C          C    0.0296169425    0.3530007408   -0.3646180533
C          C    0.0271880870    0.3786297487   -0.3914429956
X          X   -0.0053266050    0.1010087319   -0.1044951126
C          C   -0.0354248413    0.3860008548   -0.3788514761
C          C   -0.0331919508    0.3600514231   -0.3523391356
C          C   -0.0192664368    0.1758992776   -0.2136682901
O          O   -0.0360337222    0.1484958488   -0.2192798684
N          N   -0.0010815886    0.1821023504   -0.1831851088
C          C    0.0167570258    0.2127071552   -0.1769745380
O          O    0.0310347728    0.2194677492   -0.1483883109
C          C   -0.0016865444    0.1553918849   -0.1562512452
C          C    0.0141424641    0.1221280439   -0.1624996245
C          C    0.0123267268    0.0952404487   -0.1368364419
C          C   -0.0211270004    0.1342606540   -0.0981899127
C          C   -0.0189307739    0.1613163641   -0.1235670566
H          H   -0.0568543634    0.3529142374   -0.3380006694
H          H    0.0273203806    0.1166933667   -0.1872579341
X          X   -0.0053116852    0.3955686587   -0.3986687554
H          H   -0.0605702721    0.3985091437   -0.3842095385
H          H    0.0243324216    0.0698406541   -0.1422133620
H          H   -0.0353607016    0.1396671809   -0.0740855202
O          O   -0.0332659255    0.1933948149   -0.1156530361
H          H   -0.0160112811    0.2115190485   -0.1174557984
H          H   -0.0518113030    0.1751676505   -0.2789411262
H          H   -0.0509525538    0.2204543921   -0.3251712318
H          H    0.0532145463    0.3217948567   -0.2239263938
H          H    0.0517312604    0.2768011409   -0.1774063439
O          O    0.0618630774    0.3385727883   -0.3576226208
H          H    0.0677904447    0.3414867547   -0.3333921685
H          H    0.0507536210    0.3846859278   -0.4063280778
C          C    0.2274474690    0.0364895650   -0.2987623051
C          C    0.2007588364    0.0356683614   -0.2728884266
C          C    0.2053520671    0.0174469632   -0.2406347676
C          C    0.2379125663    0.0002339099   -0.2355020549
C          C    0.2426450614   -0.0177790976   -0.2032943727
C          C    0.2753122721   -0.0351024555   -0.1982776408
C          C    0.3018457551   -0.0345474075   -0.2242939877
C          C    0.2971879515   -0.0165925694   -0.2566605743
C          C    0.2647454943    0.0008870139   -0.2616552158
C          C    0.2600471269    0.0190063579   -0.2938242667
C          C    0.2887670982    0.0198592388   -0.3214352735
O          O    0.2842101174    0.0383946469   -0.3479340283
N          N    0.3188494153    0.0009506903   -0.3156999081
C          C    0.3254032136   -0.0164620785   -0.2848375632
O          O    0.3531860570   -0.0324244002   -0.2788184873
C          C    0.3450510038   -0.0006413410   -0.3430679833
C          C    0.3638949635    0.0298817365   -0.3537238304
C          C    0.3907785712    0.0274833755   -0.3792941730
X          X    0.1046235138   -0.0052387466   -0.1008803307
C          C    0.3797143720   -0.0355776427   -0.3851379590
C          C    0.3531479410   -0.0333597491   -0.3592426178
C          C    0.2141252900   -0.0183373148   -0.1754422778
O          O    0.2201345453   -0.0342924691   -0.1476411721
N          N    0.1832110705   -0.0010546424   -0.1820763887
C          C    0.1765779128    0.0158788633   -0.2131037804
O          O    0.1476551902    0.0292892889   -0.2202008697
C          C    0.1562919726   -0.0016646693   -0.1553511575
C          C    0.1621440562    0.0151150937   -0.1224836121
C          C    0.1365246325    0.0133301806   -0.0955522580
C          C    0.0987139274   -0.0219910046   -0.1337366393
C          C    0.1240382011   -0.0198368624   -0.1608452196
H          H    0.3393865719   -0.0571831697   -0.3515283351
H          H    0.1865732408    0.0290188835   -0.1173780598
X          X    0.3987969080   -0.0052332208   -0.3954405060
H          H    0.3856855522   -0.0608819649   -0.3970331302
H          H    0.1416007389    0.0260766249   -0.0704532771
H          H    0.0749641130   -0.0369333820   -0.1387885883
O          O    0.1164843191   -0.0351353204   -0.1925635321
H          H    0.1178726323   -0.0182874605   -0.2111022146
H          H    0.2801694390   -0.0492591239   -0.1739393379
H          H    0.3263783994   -0.0483779590   -0.2192472247
H          H    0.2226622400    0.0508050193   -0.3230590103
H          H    0.1761786830    0.0492855211   -0.2780288015
O          O    0.3561137906    0.0622894285   -0.3400816183
H          H    0.3317473257    0.0675537156   -0.3431315972
H          H    0.4050884297    0.0512495241   -0.3859255758
C          C   -0.2278547330   -0.0372725625   -0.2983550525
C          C   -0.2011570783   -0.0364604554   -0.2724901961
C          C   -0.2055468604   -0.0178344228   -0.2404399798
C          C   -0.2379149977   -0.0002072672   -0.2354996231
C          C   -0.2424463395    0.0182114302   -0.2034930883
C          C   -0.2749199710    0.0359487747   -0.1986699297
C          C   -0.3014595553    0.0353995045   -0.2246801752
C          C   -0.2970022678    0.0170380395   -0.2568462516
C          C   -0.2647550998   -0.0008527856   -0.2616456097
C          C   -0.2602590554   -0.0193770032   -0.2936123435
C          C   -0.2889883808   -0.0202175351   -0.3212139960
O          O   -0.2846379619   -0.0390935945   -0.3475061939
N          N   -0.3188597290   -0.0009158002   -0.3156895940
C          C   -0.3252189730    0.0169079872   -0.2850217975
O          O   -0.3528235018    0.0332415969   -0.2791810307
C          C   -0.3450438140    0.0006631569   -0.3430751727
C          C   -0.3642243061   -0.0297657873   -0.3533944862
C          C   -0.3910813555   -0.0273532179   -0.3789913867
X          X   -0.1045654145    0.0052794370   -0.1009384294
C          C   -0.3793218807    0.0355134166   -0.3855304512
C          C   -0.3527799760    0.0332883834   -0.3596105839
C          C   -0.2139204407    0.0187622070   -0.1756471210
O          O   -0.2197514566    0.0350887433   -0.1480242492
N          N   -0.1831993432    0.0010670404   -0.1820881158
C          C   -0.1767554628   -0.0162802410   -0.2129262361
O          O   -0.1479830126   -0.0300867552   -0.2198730588
C          C   -0.1562735171    0.0016748523   -0.1553696128
C          C   -0.1623085138   -0.0146753302   -0.1223191482
C          C   -0.1366692971   -0.0128761487   -0.0954075868
C          C   -0.0984732216    0.0216016069   -0.1339773508
C          C   -0.1238213940    0.0194280254   -0.1610620326
H          H   -0.3387559208    0.0570421284   -0.3521589882
H          H   -0.1868894199   -0.0282513080   -0.1170618696
X          X   -0.3987389402    0.0052696415   -0.3954984733
H          H   -0.3850140186    0.0607492420   -0.3977046658
H          H   -0.1418843037   -0.0252878514   -0.0701697009
H          H   -0.0745601730    0.0362241390   -0.1391925384
O          O   -0.1161009886    0.0342909822   -0.1929468747
H          H   -0.1176763811    0.0172558055   -0.2112984807
H          H   -0.2796190390    0.0504260876   -0.1744897212
H          H   -0.3258376813    0.0495549797   -0.2197879259
H          H   -0.2232293492   -0.0519073884   -0.3224919170
H          H   -0.1767290957   -0.0504041231   -0.2774784050
O          O   -0.3568006131   -0.0621048115   -0.3393947931
H          H   -0.3324939473   -0.0676711837   -0.3423849773
H          H   -0.4056531681   -0.0510316847   -0.3853608342
C          C    0.0499440488   -0.2893725856   -0.2368371984
C          C    0.0505308961   -0.2625160491   -0.2111312237
C          C    0.0247175559   -0.2355607168   -0.2104261227
C          C   -0.0017074075   -0.2368568832   -0.2365577379
C          C   -0.0275894408   -0.2101409011   -0.2357985278
C          C   -0.0540064030   -0.2114704840   -0.2621194188
C          C   -0.0543793283   -0.2381344483   -0.2880052843
C          C   -0.0284369892   -0.2649266524   -0.2889218683
C          C   -0.0021966070   -0.2638072400   -0.2625934699
C          C    0.0236325870   -0.2905956776   -0.2632757208
C          C    0.0228373035   -0.3193569144   -0.2908454621
O          O    0.0445519119   -0.3436369433   -0.2885072118
N          N   -0.0022393261   -0.3179261759   -0.3166231474
C          C   -0.0284657657   -0.2932147875   -0.3170259842
O          O   -0.0521558183   -0.2925888001   -0.3394157345
C          C   -0.0013936789   -0.3435930196   -0.3445259672
C          C   -0.0075835748   -0.3798704180   -0.3377483785
C          C   -0.0084806453   -0.4043930231   -0.3656797231
X          X   -0.0025778404   -0.0990233422   -0.1064805014
C          C    0.0043015613   -0.3573067125   -0.4075456150
C          C    0.0047469525   -0.3326483842   -0.3797421713
C          C   -0.0271100348   -0.1815646657   -0.2080028969
O          O   -0.0508061477   -0.1591658834   -0.2086098242
N          N   -0.0007884230   -0.1818906116   -0.1833968474
C          C    0.0256171118   -0.2063075861   -0.1833741118
O          O    0.0509088023   -0.2051128844   -0.1627431846
C          C   -0.0006433426   -0.1546384040   -0.1570047258
C          C   -0.0282400795   -0.1527406975   -0.1318869694
C          C   -0.0291442500   -0.1251946875   -0.1068822012
C          C    0.0250512478   -0.1009064300   -0.1315441371
C          C    0.0262845649   -0.1286576392   -0.1562257822
H          H    0.0093351314   -0.3051059811   -0.3858089205
H          H   -0.0493049404   -0.1720393531   -0.1319119452
X          X   -0.0023044741   -0.3933965480   -0.4008408652
H          H    0.0088221364   -0.3483874362   -0.4343312403
H          H   -0.0506466791   -0.1239975934   -0.0880564197
H          H    0.0456114910   -0.0811815195   -0.1325711828
O          O    0.0542525536   -0.1301808064   -0.1788670469
H          H    0.0661575738   -0.1521690387   -0.1768058136
H          H   -0.0744631758   -0.1915289495   -0.2625798133
H          H   -0.0751118440   -0.2379044814   -0.3077211286
H          H    0.0703184631   -0.3094408144   -0.2362804498
H          H    0.0713659910   -0.2626191155   -0.1915883828
O          O   -0.0121528501   -0.3920339996   -0.3041614150
H          H    0.0071627576   -0.3852777303   -0.2896012012
H          H   -0.0142215257   -0.4316170337   -0.3593969759
C          C    0.2274474722    0.5364895682    0.2012376981
C          C    0.2007588396    0.5356683646    0.2271115766
C          C    0.2053520703    0.5174469664    0.2593652356
C          C    0.2379125695    0.5002339131    0.2644979483
C          C    0.2426450646    0.4822209056    0.2967056305
C          C    0.2753122753    0.4648975477    0.3017223624
C          C    0.3018457584    0.4654525957    0.2757060156
C          C    0.2971879547    0.4834074339    0.2433394289
C          C    0.2647454975    0.5008870171    0.2383447874
C          C    0.2600471301    0.5190063612    0.2061757365
C          C    0.2887671014    0.5198592420    0.1785647297
O          O    0.2842101206    0.5383946501    0.1520659749
N          N    0.3188494185    0.5009506935    0.1843000951
C          C    0.3254032169    0.4835379247    0.2151624400
O          O    0.3531860602    0.4675756030    0.2211815160
C          C    0.3450510070    0.4993586622    0.1569320200
C          C    0.3638949667    0.5298817397    0.1462761728
C          C    0.3907785744    0.5274833787    0.1207058303
X          X    0.1046235170    0.4947612566    0.3991196725
C          C    0.3797143752    0.4644223605    0.1148620442
C          C    0.3531479442    0.4666402541    0.1407573854
C          C    0.2141252932    0.4816626884    0.3245577254
O          O    0.2201345485    0.4657075341    0.3523588312
N          N    0.1832110737    0.4989453608    0.3179236145
C          C    0.1765779160    0.5158788665    0.2868962228
O          O    0.1476551934    0.5292892921    0.2797991335
C          C    0.1562919758    0.4983353339    0.3446488457
C          C    0.1621440594    0.5151150969    0.3775163911
C          C    0.1365246357    0.5133301838    0.4044477452
C          C    0.0987139307    0.4780089986    0.3662633639
C          C    0.1240382043    0.4801631408    0.3391547836
H          H    0.3393865752    0.4428168336    0.1484716681
H          H    0.1865732440    0.5290188868    0.3826219434
X          X    0.3987969112    0.4947667824    0.1045594972
H          H    0.3856855554    0.4391180383    0.1029668730
H          H    0.1416007421    0.5260766281    0.4295467261
H          H    0.0749641162    0.4630666212    0.3612114150
O          O    0.1164843223    0.4648646828    0.3074364711
H          H    0.1178726355    0.4817125427    0.2888977886
H          H    0.2801694422    0.4507408794    0.3260606653
H          H    0.3263784026    0.4516220442    0.2807527785
H          H    0.2226622432    0.5508050225    0.1769409929
H          H    0.1761786862    0.5492855243    0.2219712017
O          O    0.3561137938    0.5622894318    0.1599183849
H          H    0.3317473289    0.5675537188    0.1568684060
H          H    0.4050884329    0.5512495273    0.1140744274
C          C    0.2278547340    0.4627274386    0.7983550514
C          C    0.2011570794    0.4635395457    0.7724901950
C          C    0.2055468615    0.4821655783    0.7404399788
C          C    0.2379149987    0.4997927339    0.7354996220
C          C    0.2424463406    0.5182114313    0.7034930872
C          C    0.2749199720    0.5359487758    0.6986699287
C          C    0.3014595564    0.5353995056    0.7246801741
C          C    0.2970022689    0.5170380406    0.7568462505
C          C    0.2647551009    0.4991472155    0.7616456087
C          C    0.2602590565    0.4806229978    0.7936123424
C          C    0.2889883819    0.4797824660    0.8212139949
O          O    0.2846379629    0.4609064066    0.8475061928
N          N    0.3188597300    0.4990842009    0.8156895929
C          C    0.3252189740    0.5169079883    0.7850217964
O          O    0.3528235029    0.5332415979    0.7791810296
C          C    0.3450438151    0.5006631580    0.8430751716
C          C    0.3642243072    0.4702342137    0.8533944851
C          C    0.3910813566    0.4726467832    0.8789913856
X          X    0.1045654156    0.5052794380    0.6009384284
C          C    0.3793218818    0.5355134177    0.8855304502
C          C    0.3527799771    0.5332883845    0.8596105828
C          C    0.2139204417    0.5187622081    0.6756471199
O          O    0.2197514577    0.5350887443    0.6480242482
N          N    0.1831993443    0.5010670415    0.6820881147
C          C    0.1767554639    0.4837197601    0.7129262350
O          O    0.1479830137    0.4699132459    0.7198730577
C          C    0.1562735182    0.5016748534    0.6553696118
C          C    0.1623085149    0.4853246709    0.6223191471
C          C    0.1366692982    0.4871238524    0.5954075857
C          C    0.0984732227    0.5216016079    0.6339773497
C          C    0.1238213951    0.5194280265    0.6610620315
H          H    0.3387559219    0.5570421295    0.8521589872
H          H    0.1868894210    0.4717486931    0.6170618686
X          X    0.3987389413    0.5052696426    0.8954984722
H          H    0.3850140197    0.5607492431    0.8977046647
H          H    0.1418843048    0.4747121497    0.5701696999
H          H    0.0745601741    0.5362241400    0.6391925374
O          O    0.1161009897    0.5342909833    0.6929468736
H          H    0.1176763822    0.5172558066    0.7112984796
H          H    0.2796190400    0.5504260887    0.6744897201
H          H    0.3258376823    0.5495549808    0.7197879248
H          H    0.2232293503    0.4480926127    0.8224919159
H          H    0.1767290967    0.4495958780    0.7774784040
O          O    0.3568006141    0.4378951895    0.8393947921
H          H    0.3324939484    0.4323288173    0.8423849762
H          H    0.4056531692    0.4489683164    0.8853608331
C          C    0.2278547340    0.7983550514    0.5372725614
C          C    0.2011570794    0.7724901950    0.5364604543
C          C    0.2055468615    0.7404399788    0.5178344217
C          C    0.2379149987    0.7354996220    0.5002072661
C          C    0.2424463406    0.7034930872    0.4817885687
C          C    0.2749199720    0.6986699287    0.4640512242
C          C    0.3014595564    0.7246801741    0.4646004944
C          C    0.2970022689    0.7568462505    0.4829619594
C          C    0.2647551009    0.7616456087    0.5008527845
C          C    0.2602590565    0.7936123424    0.5193770022
C          C    0.2889883819    0.8212139949    0.5202175340
O          O    0.2846379629    0.8475061928    0.5390935934
N          N    0.3188597300    0.8156895929    0.5009157991
C          C    0.3252189740    0.7850217964    0.4830920117
O          O    0.3528235029    0.7791810296    0.4667584021
C          C    0.3450438151    0.8430751716    0.4993368420
C          C    0.3642243072    0.8533944851    0.5297657863
C          C    0.3910813566    0.8789913856    0.5273532168
X          X    0.1045654156    0.6009384284    0.4947205620
C          C    0.3793218818    0.8855304502    0.4644865823
C          C    0.3527799771    0.8596105828    0.4667116155
C          C    0.2139204417    0.6756471199    0.4812377919
O          O    0.2197514577    0.6480242482    0.4649112557
N          N    0.1831993443    0.6820881147    0.4989329585
C          C    0.1767554639    0.7129262350    0.5162802399
O          O    0.1479830137    0.7198730577    0.5300867541
C          C    0.1562735182    0.6553696118    0.4983251466
C          C    0.1623085149    0.6223191471    0.5146753291
C          C    0.1366692982    0.5954075857    0.5128761476
C          C    0.0984732227    0.6339773497    0.4783983921
C          C    0.1238213951    0.6610620315    0.4805719735
H          H    0.3387559219    0.8521589872    0.4429578705
H          H    0.1868894210    0.6170618686    0.5282513069
X          X    0.3987389413    0.8954984722    0.4947303574
H          H    0.3850140197    0.8977046647    0.4392507569
H          H    0.1418843048    0.5701696999    0.5252878503
H          H    0.0745601741    0.6391925374    0.4637758600
O          O    0.1161009897    0.6929468736    0.4657090167
H          H    0.1176763822    0.7112984796    0.4827441934
H          H    0.2796190400    0.6744897201    0.4495739113
H          H    0.3258376823    0.7197879248    0.4504450192
H          H    0.2232293503    0.8224919159    0.5519073873
H          H    0.1767290967    0.7774784040    0.5504041220
O          O    0.3568006141    0.8393947921    0.5621048105
H          H    0.3324939484    0.8423849762    0.5676711827
H          H    0.4056531692    0.8853608331    0.5510316836
C          C   -0.2274474680    0.2012376938    0.5364895628
C          C   -0.2007588353    0.2271115723    0.5356683592
C          C   -0.2053520660    0.2593652313    0.5174469610
C          C   -0.2379125652    0.2644979440    0.5002339078
C          C   -0.2426450603    0.2967056263    0.4822209002
C          C   -0.2753122711    0.3017223581    0.4648975423
C          C   -0.3018457541    0.2757060113    0.4654525904
C          C   -0.2971879504    0.2433394246    0.4834074285
C          C   -0.2647454932    0.2383447831    0.5008870117
C          C   -0.2600471258    0.2061757323    0.5190063558
C          C   -0.2887670971    0.1785647254    0.5198592367
O          O   -0.2842101163    0.1520659706    0.5383946447
N          N   -0.3188494142    0.1843000908    0.5009506882
C          C   -0.3254032126    0.2151624357    0.4835379193
O          O   -0.3531860560    0.2211815117    0.4675755977
C          C   -0.3450510027    0.1569320157    0.4993586569
C          C   -0.3638949625    0.1462761685    0.5298817343
C          C   -0.3907785701    0.1207058260    0.5274833733
X          X   -0.1046235127    0.3991196682    0.4947612512
C          C   -0.3797143710    0.1148620400    0.4644223552
C          C   -0.3531479399    0.1407573811    0.4666402487
C          C   -0.2141252889    0.3245577211    0.4816626830
O          O   -0.2201345442    0.3523588269    0.4657075287
N          N   -0.1832110694    0.3179236102    0.4989453555
C          C   -0.1765779117    0.2868962186    0.5158788612
O          O   -0.1476551891    0.2797991292    0.5292892868
C          C   -0.1562919716    0.3446488415    0.4983353285
C          C   -0.1621440551    0.3775163868    0.5151150915
C          C   -0.1365246314    0.4044477409    0.5133301785
C          C   -0.0987139264    0.3662633596    0.4780089933
C          C   -0.1240382001    0.3391547794    0.4801631355
H          H   -0.3393865709    0.1484716638    0.4428168282
H          H   -0.1865732397    0.3826219391    0.5290188814
X          X   -0.3987969070    0.1045594929    0.4947667771
H          H   -0.3856855512    0.1029668687    0.4391180329
H          H   -0.1416007378    0.4295467218    0.5260766227
H          H   -0.0749641119    0.3612114107    0.4630666158
O          O   -0.1164843180    0.3074364669    0.4648646774
H          H   -0.1178726312    0.2888977843    0.4817125374
H          H   -0.2801694380    0.3260606610    0.4507408740
H          H   -0.3263783983    0.2807527742    0.4516220388
H          H   -0.2226622390    0.1769409886    0.5508050172
H          H   -0.1761786820    0.2219711974    0.5492855190
O          O   -0.3561137895    0.1599183807    0.5622894264
H          H   -0.3317473246    0.1568684017    0.5675537134
H          H   -0.4050884286    0.1140744232    0.5512495219
C          C   -0.2278547340    0.4627274386    0.2016449486
C          C   -0.2011570794    0.4635395457    0.2275098050
C          C   -0.2055468615    0.4821655783    0.2595600212
C          C   -0.2379149987    0.4997927339    0.2645003780
C          C   -0.2424463406    0.5182114313    0.2965069128
C          C   -0.2749199720    0.5359487758    0.3013300713
C          C   -0.3014595564    0.5353995056    0.2753198259
C          C   -0.2970022689    0.5170380406    0.2431537495
C          C   -0.2647551009    0.4991472155    0.2383543913
C          C   -0.2602590565    0.4806229978    0.2063876576
C          C   -0.2889883819    0.4797824660    0.1787860051
O          O   -0.2846379629    0.4609064066    0.1524938072
N          N   -0.3188597300    0.4990842009    0.1843104071
C          C   -0.3252189740    0.5169079883    0.2149782036
O          O   -0.3528235029    0.5332415979    0.2208189704
C          C   -0.3450438151    0.5006631580    0.1569248284
C          C   -0.3642243072    0.4702342137    0.1466055149
C          C   -0.3910813566    0.4726467832    0.1210086144
X          X   -0.1045654156    0.5052794380    0.3990615716
C          C   -0.3793218818    0.5355134177    0.1144695498
C          C   -0.3527799771    0.5332883845    0.1403894172
C          C   -0.2139204417    0.5187622081    0.3243528801
O          O   -0.2197514577    0.5350887443    0.3519757518
N          N   -0.1831993443    0.5010670415    0.3179118853
C          C   -0.1767554639    0.4837197601    0.2870737650
O          O   -0.1479830137    0.4699132459    0.2801269423
C          C   -0.1562735182    0.5016748534    0.3446303882
C          C   -0.1623085149    0.4853246709    0.3776808529
C          C   -0.1366692982    0.4871238524    0.4045924143
C          C   -0.0984732227    0.5216016079    0.3660226503
C          C   -0.1238213951    0.5194280265    0.3389379685
H          H   -0.3387559219    0.5570421295    0.1478410128
H          H   -0.1868894210    0.4717486931    0.3829381314
X          X   -0.3987389413    0.5052696426    0.1045015278
H          H   -0.3850140197    0.5607492431    0.1022953353
H          H   -0.1418843048    0.4747121497    0.4298303001
H          H   -0.0745601741    0.5362241400    0.3608074626
O          O   -0.1161009897    0.5342909833    0.3070531264
H          H   -0.1176763822    0.5172558066    0.2887015204
H          H   -0.2796190400    0.5504260887    0.3255102799
H          H   -0.3258376823    0.5495549808    0.2802120752
H          H   -0.2232293503    0.4480926127    0.1775080841
H          H   -0.1767290967    0.4495958780    0.2225215960
O          O   -0.3568006141    0.4378951895    0.1606052079
H          H   -0.3324939484    0.4323288173    0.1576150238
H          H   -0.4056531692    0.4489683164    0.1146391669
C          C   -0.2278547340    0.5372725614    0.7983550514
C          C   -0.2011570794    0.5364604543    0.7724901950
C          C   -0.2055468615    0.5178344217    0.7404399788
C          C   -0.2379149987    0.5002072661    0.7354996220
C          C   -0.2424463406    0.4817885687    0.7034930872
C          C   -0.2749199720    0.4640512242    0.6986699287
C          C   -0.3014595564    0.4646004944    0.7246801741
C          C   -0.2970022689    0.4829619594    0.7568462505
C          C   -0.2647551009    0.5008527845    0.7616456087
C          C   -0.2602590565    0.5193770022    0.7936123424
C          C   -0.2889883819    0.5202175340    0.8212139949
O          O   -0.2846379629    0.5390935934    0.8475061928
N          N   -0.3188597300    0.5009157991    0.8156895929
C          C   -0.3252189740    0.4830920117    0.7850217964
O          O   -0.3528235029    0.4667584021    0.7791810296
C          C   -0.3450438151    0.4993368420    0.8430751716
C          C   -0.3642243072    0.5297657863    0.8533944851
C          C   -0.3910813566    0.5273532168    0.8789913856
X          X   -0.1045654156    0.4947205620    0.6009384284
C          C   -0.3793218818    0.4644865823    0.8855304502
C          C   -0.3527799771    0.4667116155    0.8596105828
C          C   -0.2139204417    0.4812377919    0.6756471199
O          O   -0.2197514577    0.4649112557    0.6480242482
N          N   -0.1831993443    0.4989329585    0.6820881147
C          C   -0.1767554639    0.5162802399    0.7129262350
O          O   -0.1479830137    0.5300867541    0.7198730577
C          C   -0.1562735182    0.4983251466    0.6553696118
C          C   -0.1623085149    0.5146753291    0.6223191471
C          C   -0.1366692982    0.5128761476    0.5954075857
C          C   -0.0984732227    0.4783983921    0.6339773497
C          C   -0.1238213951    0.4805719735    0.6610620315
H          H   -0.3387559219    0.4429578705    0.8521589872
H          H   -0.1868894210    0.5282513069    0.6170618686
X          X   -0.3987389413    0.4947303574    0.8954984722
H          H   -0.3850140197    0.4392507569    0.8977046647
H          H   -0.1418843048    0.5252878503    0.5701696999
H          H   -0.0745601741    0.4637758600    0.6391925374
O          O   -0.1161009897    0.4657090167    0.6929468736
H          H   -0.1176763822    0.4827441934    0.7112984796
H          H   -0.2796190400    0.4495739113    0.6744897201
H          H   -0.3258376823    0.4504450192    0.7197879248
H          H   -0.2232293503    0.5519073873    0.8224919159
H          H   -0.1767290967    0.5504041220    0.7774784040
O          O   -0.3568006141    0.5621048105    0.8393947921
H          H   -0.3324939484    0.5676711827    0.8423849762
H          H   -0.4056531692    0.5510316836    0.8853608331
C          C   -0.2278547340    0.7983550514    0.4627274386
C          C   -0.2011570794    0.7724901950    0.4635395457
C          C   -0.2055468615    0.7404399788    0.4821655783
C          C   -0.2379149987    0.7354996220    0.4997927339
C          C   -0.2424463406    0.7034930872    0.5182114313
C          C   -0.2749199720    0.6986699287    0.5359487758
C          C   -0.3014595564    0.7246801741    0.5353995056
C          C   -0.2970022689    0.7568462505    0.5170380406
C          C   -0.2647551009    0.7616456087    0.4991472155
C          C   -0.2602590565    0.7936123424    0.4806229978
C          C   -0.2889883819    0.8212139949    0.4797824660
O          O   -0.2846379629    0.8475061928    0.4609064066
N          N   -0.3188597300    0.8156895929    0.4990842009
C          C   -0.3252189740    0.7850217964    0.5169079883
O          O   -0.3528235029    0.7791810296    0.5332415979
C          C   -0.3450438151    0.8430751716    0.5006631580
C          C   -0.3642243072    0.8533944851    0.4702342137
C          C   -0.3910813566    0.8789913856    0.4726467832
X          X   -0.1045654156    0.6009384284    0.5052794380
C          C   -0.3793218818    0.8855304502    0.5355134177
C          C   -0.3527799771    0.8596105828    0.5332883845
C          C   -0.2139204417    0.6756471199    0.5187622081
O          O   -0.2197514577    0.6480242482    0.5350887443
N          N   -0.1831993443    0.6820881147    0.5010670415
C          C   -0.1767554639    0.7129262350    0.4837197601
O          O   -0.1479830137    0.7198730577    0.4699132459
C          C   -0.1562735182    0.6553696118    0.5016748534
C          C   -0.1623085149    0.6223191471    0.4853246709
C          C   -0.1366692982    0.5954075857    0.4871238524
C          C   -0.0984732227    0.6339773497    0.5216016079
C          C   -0.1238213951    0.6610620315    0.5194280265
H          H   -0.3387559219    0.8521589872    0.5570421295
H          H   -0.1868894210    0.6170618686    0.4717486931
X          X   -0.3987389413    0.8954984722    0.5052696426
H          H   -0.3850140197    0.8977046647    0.5607492431
H          H   -0.1418843048    0.5701696999    0.4747121497
H          H   -0.0745601741    0.6391925374    0.5362241400
O          O   -0.1161009897    0.6929468736    0.5342909833
H          H   -0.1176763822    0.7112984796    0.5172558066
H          H   -0.2796190400    0.6744897201    0.5504260887
H          H   -0.3258376823    0.7197879248    0.5495549808
H          H   -0.2232293503    0.8224919159    0.4480926127
H          H   -0.1767290967    0.7774784040    0.4495958780
O          O   -0.3568006141    0.8393947921    0.4378951895
H          H   -0.3324939484    0.8423849762    0.4323288173
H          H   -0.4056531692    0.8853608331    0.4489683164
C          C    0.4500559523    0.2368371932    0.7893725825
C          C    0.4494691050    0.2111312228    0.7625160419
C          C    0.4752824452    0.2104261261    0.7355607094
C          C    0.5017074086    0.2365577410    0.7368568799
C          C    0.5275894419    0.2357985352    0.7101408978
C          C    0.5540064041    0.2621194260    0.7114704849
C          C    0.5543793294    0.2880052873    0.7381344533
C          C    0.5284369903    0.2889218670    0.7649266575
C          C    0.5021966081    0.2625934688    0.7638072409
C          C    0.4763674141    0.2632757154    0.7905956787
C          C    0.4771626975    0.2908454521    0.8193569199
O          O    0.4554480892    0.2885071979    0.8436369484
N          N    0.5022393271    0.3166231377    0.8179261854
C          C    0.5284657667    0.3170259784    0.7932147971
O          O    0.5521558194    0.3394157288    0.7925888133
C          C    0.5013936800    0.3445259534    0.8435930336
C          C    0.5075835759    0.3377483589    0.8798704309
C          C    0.5084806464    0.3656796996    0.9043930405
X          X    0.5025778415    0.1064805265    0.5990233183
C          C    0.4956984398    0.4075455989    0.8573067365
C          C    0.4952530486    0.3797421593    0.8326484038
C          C    0.5271100359    0.2080029089    0.6815646579
O          O    0.5508061488    0.2086098398    0.6591658757
N          N    0.5007884241    0.1833968593    0.6818905999
C          C    0.4743828892    0.1833741198    0.7063075744
O          O    0.4490911988    0.1627431929    0.7051128695
C          C    0.5006433437    0.1570047420    0.6546383882
C          C    0.5282400806    0.1318869860    0.6527406776
C          C    0.5291442511    0.1068822222    0.6251946636
C          C    0.4749487533    0.1315441619    0.6009064100
C          C    0.4737154362    0.1562258026    0.6286576232
H          H    0.4906648697    0.3858089128    0.8051060016
H          H    0.5493049414    0.1319119587    0.6720393333
X          X    0.5023044752    0.4008408435    0.8933965709
H          H    0.4911778647    0.4343312257    0.8483874645
H          H    0.5506466802    0.0880564409    0.6239975666
H          H    0.4543885101    0.1325712107    0.5811814997
O          O    0.4457474475    0.1788670671    0.6301807940
H          H    0.4338424273    0.1768058303    0.6521690260
H          H    0.5744631769    0.2625798237    0.6915289504
H          H    0.5751118451    0.3077211316    0.7379044896
H          H    0.4296815379    0.2362804414    0.8094408111
H          H    0.4286340101    0.1915883818    0.7626191052
O          O    0.5121528511    0.3041613935    0.8920340071
H          H    0.4928372435    0.2896011807    0.8852777355
H          H    0.5142215268    0.3593969481    0.9316170501
C          C    0.5499440477   -0.2893725846    0.2631628006
C          C    0.5505308950   -0.2625160481    0.2888687752
C          C    0.5247175548   -0.2355607157    0.2895738762
C          C    0.4982925914   -0.2368568821    0.2634422611
C          C    0.4724105581   -0.2101409000    0.2642014712
C          C    0.4459935959   -0.2114704829    0.2378805802
C          C    0.4456206706   -0.2381344473    0.2119947146
C          C    0.4715630097   -0.2649266513    0.2110781306
C          C    0.4978033919   -0.2638072389    0.2374065290
C          C    0.5236325859   -0.2905956766    0.2367242781
C          C    0.5228373025   -0.3193569134    0.2091545368
O          O    0.5445519108   -0.3436369423    0.2114927872
N          N    0.4977606729   -0.3179261748    0.1833768515
C          C    0.4715342333   -0.2932147865    0.1829740147
O          O    0.4478441806   -0.2925887991    0.1605842644
C          C    0.4986063200   -0.3435930185    0.1554740317
C          C    0.4924164241   -0.3798704169    0.1622516204
C          C    0.4915193536   -0.4043930221    0.1343202758
X          X    0.4974221585   -0.0990233411    0.3935194975
C          C    0.5043015602   -0.3573067114    0.0924543840
C          C    0.5047469514   -0.3326483832    0.1202578276
C          C    0.4728899641   -0.1815646646    0.2919971020
O          O    0.4491938512   -0.1591658823    0.2913901747
N          N    0.4992115759   -0.1818906105    0.3166031515
C          C    0.5256171108   -0.2063075850    0.3166258871
O          O    0.5509088012   -0.2051128834    0.3372568143
C          C    0.4993566563   -0.1546384030    0.3429952731
C          C    0.4717599194   -0.1527406964    0.3681130295
C          C    0.4708557489   -0.1251946864    0.3931177977
C          C    0.5250512467   -0.1009064289    0.3684558618
C          C    0.5262845638   -0.1286576382    0.3437742167
H          H    0.5093351303   -0.3051059800    0.1141910784
H          H    0.4506950586   -0.1720393521    0.3680880537
X          X    0.4976955248   -0.3933965469    0.0991591337
H          H    0.5088221353   -0.3483874351    0.0656687586
H          H    0.4493533198   -0.1239975924    0.4119435792
H          H    0.5456114899   -0.0811815184    0.3674288162
O          O    0.5542525525   -0.1301808053    0.3211329520
H          H    0.5661575727   -0.1521690377    0.3231941853
H          H    0.4255368231   -0.1915289484    0.2374201856
H          H    0.4248881549   -0.2379044804    0.1922788704
H          H    0.5703184621   -0.3094408133    0.2637195491
H          H    0.5713659899   -0.2626191145    0.3084116162
O          O    0.4878471489   -0.3920339985    0.1958385839
H          H    0.5071627565   -0.3852777292    0.2103987977
H          H    0.4857784732   -0.4316170327    0.1406030230
C          C    0.5382008868   -0.2978545904    0.7283551839
C          C    0.5373999660   -0.2720004256    0.7016468376
C          C    0.5182939908   -0.2402004075    0.7057864272
C          C    0.5001752002   -0.2354970840    0.7379175372
C          C    0.4812752258   -0.2037380066    0.7422014273
C          C    0.4630464209   -0.1991533415    0.7744365713
C          C    0.4635885752   -0.2251563540    0.8009833886
C          C    0.4824324608   -0.2570757244    0.7967728013
C          C    0.5008114007   -0.2616345760    0.7647661341
C          C    0.5198158809   -0.2933524596    0.7605189340
C          C    0.5206413113   -0.3209430699    0.7892593019
O          O    0.5399203922   -0.3469822638    0.7851618820
N          N    0.5008736001   -0.3156777385    0.8188715849
C          C    0.4825619445   -0.2852495538    0.8249912229
O          O    0.4657877009   -0.2796283266    0.8523762176
C          C    0.4993108533   -0.3430841538    0.8450348333
C          C    0.5296169414   -0.3530007419    0.8646180522
C          C    0.5271880859   -0.3786297497    0.8914429945
X          X    0.4946733939   -0.1010087329    0.6044951116
C          C    0.4645751576   -0.3860008558    0.8788514750
C          C    0.4668080481   -0.3600514242    0.8523391345
C          C    0.4807335622   -0.1758992787    0.7136682891
O          O    0.4639662767   -0.1484958499    0.7192798673
N          N    0.4989184104   -0.1821023514    0.6831851077
C          C    0.5167570247   -0.2127071563    0.6769745369
O          O    0.5310347718   -0.2194677502    0.6483883098
C          C    0.4983134545   -0.1553918860    0.6562512441
C          C    0.5141424630   -0.1221280450    0.6624996234
C          C    0.5123267257   -0.0952404497    0.6368364408
C          C    0.4788729985   -0.1342606551    0.5981899116
C          C    0.4810692250   -0.1613163652    0.6235670555
H          H    0.4431456356   -0.3529142385    0.8380006683
H          H    0.5273203796   -0.1166933678    0.6872579330
X          X    0.4946883137   -0.3955686597    0.8986687543
H          H    0.4394297268   -0.3985091448    0.8842095374
H          H    0.5243324205   -0.0698406552    0.6422133609
H          H    0.4646392973   -0.1396671820    0.5740855191
O          O    0.4667340734   -0.1933948160    0.6156530350
H          H    0.4839887178   -0.2115190496    0.6174557973
H          H    0.4481886960   -0.1751676516    0.7789411252
H          H    0.4490474451   -0.2204543931    0.8251712308
H          H    0.5532145452   -0.3217948578    0.7239263928
H          H    0.5517312594   -0.2768011419    0.6774063428
O          O    0.5618630764   -0.3385727894    0.8576226197
H          H    0.5677904436   -0.3414867557    0.8333921674
H          H    0.5507536199   -0.3846859289    0.9063280768
loop_
