data_ptd_Pm-3  hall_number: 494, V_con: 3, EC_con: 3
_audit_creation_date              2025-03-06
_audit_creation_method            'MOFbuilder_1.0'
_symmetry_space_group_name_H-M    'P1'
_symmetry_Int_Tables_number       1
_symmetry_cell_setting            triclinic
loop_
_symmetry_equiv_pos_as_xyz
  x,y,z
_cell_length_a                    38.2842
_cell_length_b                    38.2842
_cell_length_c                    38.2842
_cell_angle_alpha                 90.0
_cell_angle_beta                  90.0
_cell_angle_gamma                 90.0
loop_
_atom_site_label
_atom_site_type_symbol
_atom_site_fract_x
_atom_site_fract_y
_atom_site_fract_z
V1    V   0.00000  0.18463  0.36940
V2    V   0.00000  0.18463  0.63060
V3    V   0.00000  0.81537  0.36940
V4    V   0.00000  0.81537  0.63060
V5    V   0.18463  0.36940  0.00000
V6    V   0.18463  0.63060  0.00000
V7    V   0.36940  0.00000  0.18463
V8    V   0.36940  0.00000  0.81537
V9    V   0.63060  0.00000  0.18463
V10   V   0.63060  0.00000  0.81537
V11   V   0.81537  0.36940  0.00000
V12   V   0.81537  0.63060  0.00000
EC1    EC   0.18459  0.18459  0.18459
EC2    EC   0.18459  0.18459  0.81541
EC3    EC   0.18459  0.81541  0.18459
EC4    EC   0.18459  0.81541  0.81541
EC5    EC   0.81541  0.18459  0.18459
EC6    EC   0.81541  0.18459  0.81541
EC7    EC   0.81541  0.81541  0.18459
EC8    EC   0.81541  0.81541  0.81541
E1    E   0.00000  0.18463  0.50000
E2    E   0.00000  0.81537  0.50000
E3    E   0.09229  0.18461  0.27699
E4    E   0.09229  0.18461  0.72301
E5    E   0.09229  0.81539  0.27699
E6    E   0.09229  0.81539  0.72301
E7    E   0.18461  0.27699  0.09229
E8    E   0.18461  0.27699  0.90771
E9    E   0.18461  0.72301  0.09229
E10   E   0.18461  0.72301  0.90771
E11   E   0.18463  0.50000  0.00000
E12   E   0.27699  0.09229  0.18461
E13   E   0.27699  0.09229  0.81539
E14   E   0.27699  0.90771  0.18461
E15   E   0.27699  0.90771  0.81539
E16   E   0.50000  0.00000  0.18463
E17   E   0.50000  0.00000  0.81537
E18   E   0.72301  0.09229  0.18461
E19   E   0.72301  0.09229  0.81539
E20   E   0.72301  0.90771  0.18461
E21   E   0.72301  0.90771  0.81539
E22   E   0.81537  0.50000  0.00000
E23   E   0.81539  0.27699  0.09229
E24   E   0.81539  0.27699  0.90771
E25   E   0.81539  0.72301  0.09229
E26   E   0.81539  0.72301  0.90771
E27   E   0.90771  0.18461  0.27699
E28   E   0.90771  0.18461  0.72301
E29   E   0.90771  0.81539  0.27699
E30   E   0.90771  0.81539  0.72301
loop_
