data_pyc_Fd-3m:2  hall_number: 526, V_con: 8
_audit_creation_date              2025-03-06
_audit_creation_method            'MOFbuilder_1.0'
_symmetry_space_group_name_H-M    'P1'
_symmetry_Int_Tables_number       1
_symmetry_cell_setting            triclinic
loop_
_symmetry_equiv_pos_as_xyz
  x,y,z
_cell_length_a                    37.7124
_cell_length_b                    37.7124
_cell_length_c                    37.7124
_cell_angle_alpha                 90.0
_cell_angle_beta                  90.0
_cell_angle_gamma                 90.0
loop_
_atom_site_label
_atom_site_type_symbol
_atom_site_fract_x
_atom_site_fract_y
_atom_site_fract_z
V1    V   0.06250  0.37500  0.87500
V2    V   0.06250  0.87500  0.37500
V3    V   0.12500  0.12500  0.43750
V4    V   0.12500  0.12500  0.81250
V5    V   0.12500  0.31250  0.62500
V6    V   0.12500  0.43750  0.12500
V7    V   0.12500  0.62500  0.31250
V8    V   0.12500  0.62500  0.93750
V9    V   0.12500  0.81250  0.12500
V10   V   0.12500  0.93750  0.62500
V11   V   0.18750  0.37500  0.37500
V12   V   0.18750  0.87500  0.87500
V13   V   0.31250  0.12500  0.62500
V14   V   0.31250  0.62500  0.12500
V15   V   0.37500  0.06250  0.87500
V16   V   0.37500  0.18750  0.37500
V17   V   0.37500  0.37500  0.18750
V18   V   0.37500  0.37500  0.56250
V19   V   0.37500  0.56250  0.37500
V20   V   0.37500  0.68750  0.87500
V21   V   0.37500  0.87500  0.06250
V22   V   0.37500  0.87500  0.68750
V23   V   0.43750  0.12500  0.12500
V24   V   0.43750  0.62500  0.62500
V25   V   0.56250  0.37500  0.37500
V26   V   0.56250  0.87500  0.87500
V27   V   0.62500  0.12500  0.31250
V28   V   0.62500  0.12500  0.93750
V29   V   0.62500  0.31250  0.12500
V30   V   0.62500  0.43750  0.62500
V31   V   0.62500  0.62500  0.43750
V32   V   0.62500  0.62500  0.81250
V33   V   0.62500  0.81250  0.62500
V34   V   0.62500  0.93750  0.12500
V35   V   0.68750  0.37500  0.87500
V36   V   0.68750  0.87500  0.37500
V37   V   0.81250  0.12500  0.12500
V38   V   0.81250  0.62500  0.62500
V39   V   0.87500  0.06250  0.37500
V40   V   0.87500  0.18750  0.87500
V41   V   0.87500  0.37500  0.06250
V42   V   0.87500  0.37500  0.68750
V43   V   0.87500  0.56250  0.87500
V44   V   0.87500  0.68750  0.37500
V45   V   0.87500  0.87500  0.18750
V46   V   0.87500  0.87500  0.56250
V47   V   0.93750  0.12500  0.62500
V48   V   0.93750  0.62500  0.12500
E1    E   0.00000  0.09375  0.40625
E2    E   0.00000  0.15625  0.84375
E3    E   0.00000  0.34375  0.65625
E4    E   0.00000  0.40625  0.09375
E5    E   0.00000  0.59375  0.90625
E6    E   0.00000  0.65625  0.34375
E7    E   0.00000  0.84375  0.15625
E8    E   0.00000  0.90625  0.59375
E9    E   0.03125  0.03125  0.62500
E10   E   0.03125  0.12500  0.53125
E11   E   0.03125  0.12500  0.71875
E12   E   0.03125  0.21875  0.62500
E13   E   0.03125  0.53125  0.12500
E14   E   0.03125  0.62500  0.03125
E15   E   0.03125  0.62500  0.21875
E16   E   0.03125  0.71875  0.12500
E17   E   0.09375  0.00000  0.40625
E18   E   0.09375  0.25000  0.84375
E19   E   0.09375  0.34375  0.75000
E20   E   0.09375  0.40625  0.00000
E21   E   0.09375  0.50000  0.90625
E22   E   0.09375  0.75000  0.34375
E23   E   0.09375  0.84375  0.25000
E24   E   0.09375  0.90625  0.50000
E25   E   0.12500  0.03125  0.53125
E26   E   0.12500  0.03125  0.71875
E27   E   0.12500  0.21875  0.53125
E28   E   0.12500  0.21875  0.71875
E29   E   0.12500  0.53125  0.03125
E30   E   0.12500  0.53125  0.21875
E31   E   0.12500  0.71875  0.03125
E32   E   0.12500  0.71875  0.21875
E33   E   0.15625  0.00000  0.84375
E34   E   0.15625  0.25000  0.40625
E35   E   0.15625  0.34375  0.50000
E36   E   0.15625  0.40625  0.25000
E37   E   0.15625  0.50000  0.34375
E38   E   0.15625  0.75000  0.90625
E39   E   0.15625  0.84375  0.00000
E40   E   0.15625  0.90625  0.75000
E41   E   0.21875  0.03125  0.62500
E42   E   0.21875  0.12500  0.53125
E43   E   0.21875  0.12500  0.71875
E44   E   0.21875  0.21875  0.62500
E45   E   0.21875  0.53125  0.12500
E46   E   0.21875  0.62500  0.03125
E47   E   0.21875  0.62500  0.21875
E48   E   0.21875  0.71875  0.12500
E49   E   0.25000  0.09375  0.84375
E50   E   0.25000  0.15625  0.40625
E51   E   0.25000  0.34375  0.59375
E52   E   0.25000  0.40625  0.15625
E53   E   0.25000  0.59375  0.34375
E54   E   0.25000  0.65625  0.90625
E55   E   0.25000  0.84375  0.09375
E56   E   0.25000  0.90625  0.65625
E57   E   0.28125  0.28125  0.37500
E58   E   0.28125  0.37500  0.28125
E59   E   0.28125  0.37500  0.46875
E60   E   0.28125  0.46875  0.37500
E61   E   0.28125  0.78125  0.87500
E62   E   0.28125  0.87500  0.78125
E63   E   0.28125  0.87500  0.96875
E64   E   0.28125  0.96875  0.87500
E65   E   0.34375  0.00000  0.65625
E66   E   0.34375  0.09375  0.75000
E67   E   0.34375  0.15625  0.50000
E68   E   0.34375  0.25000  0.59375
E69   E   0.34375  0.50000  0.15625
E70   E   0.34375  0.59375  0.25000
E71   E   0.34375  0.65625  0.00000
E72   E   0.34375  0.75000  0.09375
E73   E   0.37500  0.28125  0.28125
E74   E   0.37500  0.28125  0.46875
E75   E   0.37500  0.46875  0.28125
E76   E   0.37500  0.46875  0.46875
E77   E   0.37500  0.78125  0.78125
E78   E   0.37500  0.78125  0.96875
E79   E   0.37500  0.96875  0.78125
E80   E   0.37500  0.96875  0.96875
E81   E   0.40625  0.00000  0.09375
E82   E   0.40625  0.09375  0.00000
E83   E   0.40625  0.15625  0.25000
E84   E   0.40625  0.25000  0.15625
E85   E   0.40625  0.50000  0.59375
E86   E   0.40625  0.59375  0.50000
E87   E   0.40625  0.65625  0.75000
E88   E   0.40625  0.75000  0.65625
E89   E   0.46875  0.28125  0.37500
E90   E   0.46875  0.37500  0.28125
E91   E   0.46875  0.37500  0.46875
E92   E   0.46875  0.46875  0.37500
E93   E   0.46875  0.78125  0.87500
E94   E   0.46875  0.87500  0.78125
E95   E   0.46875  0.87500  0.96875
E96   E   0.46875  0.96875  0.87500
E97   E   0.50000  0.09375  0.90625
E98   E   0.50000  0.15625  0.34375
E99   E   0.50000  0.34375  0.15625
E100  E   0.50000  0.40625  0.59375
E101  E   0.50000  0.59375  0.40625
E102  E   0.50000  0.65625  0.84375
E103  E   0.50000  0.84375  0.65625
E104  E   0.50000  0.90625  0.09375
E105  E   0.53125  0.03125  0.12500
E106  E   0.53125  0.12500  0.03125
E107  E   0.53125  0.12500  0.21875
E108  E   0.53125  0.21875  0.12500
E109  E   0.53125  0.53125  0.62500
E110  E   0.53125  0.62500  0.53125
E111  E   0.53125  0.62500  0.71875
E112  E   0.53125  0.71875  0.62500
E113  E   0.59375  0.00000  0.90625
E114  E   0.59375  0.25000  0.34375
E115  E   0.59375  0.34375  0.25000
E116  E   0.59375  0.40625  0.50000
E117  E   0.59375  0.50000  0.40625
E118  E   0.59375  0.75000  0.84375
E119  E   0.59375  0.84375  0.75000
E120  E   0.59375  0.90625  0.00000
E121  E   0.62500  0.03125  0.03125
E122  E   0.62500  0.03125  0.21875
E123  E   0.62500  0.21875  0.03125
E124  E   0.62500  0.21875  0.21875
E125  E   0.62500  0.53125  0.53125
E126  E   0.62500  0.53125  0.71875
E127  E   0.62500  0.71875  0.53125
E128  E   0.62500  0.71875  0.71875
E129  E   0.65625  0.00000  0.34375
E130  E   0.65625  0.25000  0.90625
E131  E   0.65625  0.34375  0.00000
E132  E   0.65625  0.40625  0.75000
E133  E   0.65625  0.50000  0.84375
E134  E   0.65625  0.75000  0.40625
E135  E   0.65625  0.84375  0.50000
E136  E   0.65625  0.90625  0.25000
E137  E   0.71875  0.03125  0.12500
E138  E   0.71875  0.12500  0.03125
E139  E   0.71875  0.12500  0.21875
E140  E   0.71875  0.21875  0.12500
E141  E   0.71875  0.53125  0.62500
E142  E   0.71875  0.62500  0.53125
E143  E   0.71875  0.62500  0.71875
E144  E   0.71875  0.71875  0.62500
E145  E   0.75000  0.09375  0.34375
E146  E   0.75000  0.15625  0.90625
E147  E   0.75000  0.34375  0.09375
E148  E   0.75000  0.40625  0.65625
E149  E   0.75000  0.59375  0.84375
E150  E   0.75000  0.65625  0.40625
E151  E   0.75000  0.84375  0.59375
E152  E   0.75000  0.90625  0.15625
E153  E   0.78125  0.28125  0.87500
E154  E   0.78125  0.37500  0.78125
E155  E   0.78125  0.37500  0.96875
E156  E   0.78125  0.46875  0.87500
E157  E   0.78125  0.78125  0.37500
E158  E   0.78125  0.87500  0.28125
E159  E   0.78125  0.87500  0.46875
E160  E   0.78125  0.96875  0.37500
E161  E   0.84375  0.00000  0.15625
E162  E   0.84375  0.09375  0.25000
E163  E   0.84375  0.15625  0.00000
E164  E   0.84375  0.25000  0.09375
E165  E   0.84375  0.50000  0.65625
E166  E   0.84375  0.59375  0.75000
E167  E   0.84375  0.65625  0.50000
E168  E   0.84375  0.75000  0.59375
E169  E   0.87500  0.28125  0.78125
E170  E   0.87500  0.28125  0.96875
E171  E   0.87500  0.46875  0.78125
E172  E   0.87500  0.46875  0.96875
E173  E   0.87500  0.78125  0.28125
E174  E   0.87500  0.78125  0.46875
E175  E   0.87500  0.96875  0.28125
E176  E   0.87500  0.96875  0.46875
E177  E   0.90625  0.00000  0.59375
E178  E   0.90625  0.09375  0.50000
E179  E   0.90625  0.15625  0.75000
E180  E   0.90625  0.25000  0.65625
E181  E   0.90625  0.50000  0.09375
E182  E   0.90625  0.59375  0.00000
E183  E   0.90625  0.65625  0.25000
E184  E   0.90625  0.75000  0.15625
E185  E   0.96875  0.28125  0.87500
E186  E   0.96875  0.37500  0.78125
E187  E   0.96875  0.37500  0.96875
E188  E   0.96875  0.46875  0.87500
E189  E   0.96875  0.78125  0.37500
E190  E   0.96875  0.87500  0.28125
E191  E   0.96875  0.87500  0.46875
E192  E   0.96875  0.96875  0.37500
loop_
