data_pyd_Fd-3m:2  hall_number: 526, V_con: 3, EC_con: 3
_audit_creation_date              2025-03-06
_audit_creation_method            'MOFbuilder_1.0'
_symmetry_space_group_name_H-M    'P1'
_symmetry_Int_Tables_number       1
_symmetry_cell_setting            triclinic
loop_
_symmetry_equiv_pos_as_xyz
  x,y,z
_cell_length_a                    77.2809
_cell_length_b                    77.2809
_cell_length_c                    77.2809
_cell_angle_alpha                 90.0
_cell_angle_beta                  90.0
_cell_angle_gamma                 90.0
loop_
_atom_site_label
_atom_site_type_symbol
_atom_site_fract_x
_atom_site_fract_y
_atom_site_fract_z
V1    V   0.00010  0.00010  0.59137
V2    V   0.00010  0.09137  0.50010
V3    V   0.00010  0.15863  0.74990
V4    V   0.00010  0.24990  0.65863
V5    V   0.00010  0.50010  0.09137
V6    V   0.00010  0.59137  0.00010
V7    V   0.00010  0.65863  0.24990
V8    V   0.00010  0.74990  0.15863
V9    V   0.00010  0.00010  0.59137
V10   V   0.00010  0.09137  0.50010
V11   V   0.00010  0.15863  0.74990
V12   V   0.00010  0.24990  0.65863
V13   V   0.00010  0.50010  0.09137
V14   V   0.00010  0.59137  0.00010
V15   V   0.00010  0.65863  0.24990
V16   V   0.00010  0.74990  0.15863
V17   V   0.09137  0.00010  0.50010
V18   V   0.09137  0.00010  0.50010
V19   V   0.09137  0.24990  0.74990
V20   V   0.09137  0.50010  0.00010
V21   V   0.09137  0.50010  0.00010
V22   V   0.09137  0.74990  0.24990
V23   V   0.15863  0.00010  0.74990
V24   V   0.15863  0.00010  0.74990
V25   V   0.15863  0.24990  0.50010
V26   V   0.15863  0.50010  0.24990
V27   V   0.15863  0.74990  0.00010
V28   V   0.15863  0.74990  0.00010
V29   V   0.24990  0.00010  0.65863
V30   V   0.24990  0.00010  0.65863
V31   V   0.24990  0.09137  0.74990
V32   V   0.24990  0.15863  0.50010
V33   V   0.24990  0.24990  0.59137
V34   V   0.24990  0.50010  0.15863
V35   V   0.24990  0.59137  0.24990
V36   V   0.24990  0.65863  0.00010
V37   V   0.24990  0.65863  0.00010
V38   V   0.24990  0.74990  0.09137
V39   V   0.25010  0.25010  0.40863
V40   V   0.25010  0.34137  0.49990
V41   V   0.25010  0.40863  0.25010
V42   V   0.25010  0.49990  0.34137
V43   V   0.25010  0.75010  0.90863
V44   V   0.25010  0.84137  0.99990
V45   V   0.25010  0.90863  0.75010
V46   V   0.25010  0.99990  0.84137
V47   V   0.34137  0.25010  0.49990
V48   V   0.34137  0.49990  0.25010
V49   V   0.34137  0.75010  0.99990
V50   V   0.34137  0.99990  0.75010
V51   V   0.40863  0.25010  0.25010
V52   V   0.40863  0.49990  0.49990
V53   V   0.40863  0.75010  0.75010
V54   V   0.40863  0.99990  0.99990
V55   V   0.49990  0.25010  0.34137
V56   V   0.49990  0.34137  0.25010
V57   V   0.49990  0.40863  0.49990
V58   V   0.49990  0.49990  0.40863
V59   V   0.49990  0.75010  0.84137
V60   V   0.49990  0.84137  0.75010
V61   V   0.49990  0.90863  0.99990
V62   V   0.49990  0.99990  0.90863
V63   V   0.50010  0.00010  0.09137
V64   V   0.50010  0.00010  0.09137
V65   V   0.50010  0.09137  0.00010
V66   V   0.50010  0.09137  0.00010
V67   V   0.50010  0.15863  0.24990
V68   V   0.50010  0.24990  0.15863
V69   V   0.50010  0.50010  0.59137
V70   V   0.50010  0.59137  0.50010
V71   V   0.50010  0.65863  0.74990
V72   V   0.50010  0.74990  0.65863
V73   V   0.59137  0.00010  0.00010
V74   V   0.59137  0.00010  0.00010
V75   V   0.59137  0.24990  0.24990
V76   V   0.59137  0.50010  0.50010
V77   V   0.59137  0.74990  0.74990
V78   V   0.65863  0.00010  0.24990
V79   V   0.65863  0.00010  0.24990
V80   V   0.65863  0.24990  0.00010
V81   V   0.65863  0.24990  0.00010
V82   V   0.65863  0.50010  0.74990
V83   V   0.65863  0.74990  0.50010
V84   V   0.74990  0.00010  0.15863
V85   V   0.74990  0.00010  0.15863
V86   V   0.74990  0.09137  0.24990
V87   V   0.74990  0.15863  0.00010
V88   V   0.74990  0.15863  0.00010
V89   V   0.74990  0.24990  0.09137
V90   V   0.74990  0.50010  0.65863
V91   V   0.74990  0.59137  0.74990
V92   V   0.74990  0.65863  0.50010
V93   V   0.74990  0.74990  0.59137
V94   V   0.75010  0.25010  0.90863
V95   V   0.75010  0.34137  0.99990
V96   V   0.75010  0.40863  0.75010
V97   V   0.75010  0.49990  0.84137
V98   V   0.75010  0.75010  0.40863
V99   V   0.75010  0.84137  0.49990
V100  V   0.75010  0.90863  0.25010
V101  V   0.75010  0.99990  0.34137
V102  V   0.84137  0.25010  0.99990
V103  V   0.84137  0.49990  0.75010
V104  V   0.84137  0.75010  0.49990
V105  V   0.84137  0.99990  0.25010
V106  V   0.90863  0.25010  0.75010
V107  V   0.90863  0.49990  0.99990
V108  V   0.90863  0.75010  0.25010
V109  V   0.90863  0.99990  0.49990
V110  V   0.99990  0.25010  0.84137
V111  V   0.99990  0.34137  0.75010
V112  V   0.99990  0.40863  0.99990
V113  V   0.99990  0.49990  0.90863
V114  V   0.99990  0.75010  0.34137
V115  V   0.99990  0.84137  0.25010
V116  V   0.99990  0.90863  0.49990
V117  V   0.99990  0.99990  0.40863
EC1    EC   0.05298  0.05298  0.69702
EC2    EC   0.05298  0.19702  0.55298
EC3    EC   0.05298  0.55298  0.19702
EC4    EC   0.05298  0.69702  0.05298
EC5    EC   0.19702  0.05298  0.55298
EC6    EC   0.19702  0.19702  0.69702
EC7    EC   0.19702  0.55298  0.05298
EC8    EC   0.19702  0.69702  0.19702
EC9    EC   0.30298  0.30298  0.30298
EC10   EC   0.30298  0.44702  0.44702
EC11   EC   0.30298  0.80298  0.80298
EC12   EC   0.30298  0.94702  0.94702
EC13   EC   0.44702  0.30298  0.44702
EC14   EC   0.44702  0.44702  0.30298
EC15   EC   0.44702  0.80298  0.94702
EC16   EC   0.44702  0.94702  0.80298
EC17   EC   0.55298  0.05298  0.19702
EC18   EC   0.55298  0.19702  0.05298
EC19   EC   0.55298  0.55298  0.69702
EC20   EC   0.55298  0.69702  0.55298
EC21   EC   0.69702  0.05298  0.05298
EC22   EC   0.69702  0.19702  0.19702
EC23   EC   0.69702  0.55298  0.55298
EC24   EC   0.69702  0.69702  0.69702
EC25   EC   0.80298  0.30298  0.80298
EC26   EC   0.80298  0.44702  0.94702
EC27   EC   0.80298  0.80298  0.30298
EC28   EC   0.80298  0.94702  0.44702
EC29   EC   0.94702  0.30298  0.94702
EC30   EC   0.94702  0.44702  0.80298
EC31   EC   0.94702  0.80298  0.44702
EC32   EC   0.94702  0.94702  0.30298
E1    E   0.00000  0.04564  0.45436
E2    E   0.00000  0.04564  0.45436
E3    E   0.00000  0.20436  0.79564
E4    E   0.00000  0.20436  0.79564
E5    E   0.00000  0.29564  0.70436
E6    E   0.00000  0.45436  0.04564
E7    E   0.00000  0.45436  0.04564
E8    E   0.00000  0.54564  0.95436
E9    E   0.00000  0.70436  0.29564
E10   E   0.00000  0.79564  0.20436
E11   E   0.00000  0.79564  0.20436
E12   E   0.00000  0.95436  0.54564
E13   E   0.02654  0.02654  0.64419
E14   E   0.02654  0.10581  0.72346
E15   E   0.02654  0.14419  0.52654
E16   E   0.02654  0.22346  0.60581
E17   E   0.02654  0.52654  0.14419
E18   E   0.02654  0.60581  0.22346
E19   E   0.02654  0.64419  0.02654
E20   E   0.02654  0.72346  0.10581
E21   E   0.02654  0.02654  0.64419
E22   E   0.02654  0.10581  0.72346
E23   E   0.02654  0.14419  0.52654
E24   E   0.02654  0.22346  0.60581
E25   E   0.02654  0.52654  0.14419
E26   E   0.02654  0.60581  0.22346
E27   E   0.02654  0.64419  0.02654
E28   E   0.02654  0.72346  0.10581
E29   E   0.04564  0.00000  0.45436
E30   E   0.04564  0.25000  0.79564
E31   E   0.04564  0.29564  0.75000
E32   E   0.04564  0.45436  0.00000
E33   E   0.04564  0.50000  0.95436
E34   E   0.04564  0.75000  0.29564
E35   E   0.04564  0.79564  0.25000
E36   E   0.04564  0.95436  0.50000
E37   E   0.04564  0.00000  0.45436
E38   E   0.04564  0.25000  0.79564
E39   E   0.04564  0.29564  0.75000
E40   E   0.04564  0.45436  0.00000
E41   E   0.04564  0.50000  0.95436
E42   E   0.04564  0.75000  0.29564
E43   E   0.04564  0.79564  0.25000
E44   E   0.04564  0.95436  0.50000
E45   E   0.10581  0.02654  0.72346
E46   E   0.10581  0.02654  0.72346
E47   E   0.10581  0.22346  0.52654
E48   E   0.10581  0.52654  0.22346
E49   E   0.10581  0.72346  0.02654
E50   E   0.10581  0.72346  0.02654
E51   E   0.14419  0.02654  0.52654
E52   E   0.14419  0.02654  0.52654
E53   E   0.14419  0.22346  0.72346
E54   E   0.14419  0.52654  0.02654
E55   E   0.14419  0.52654  0.02654
E56   E   0.14419  0.72346  0.22346
E57   E   0.20436  0.00000  0.79564
E58   E   0.20436  0.25000  0.45436
E59   E   0.20436  0.29564  0.50000
E60   E   0.20436  0.45436  0.25000
E61   E   0.20436  0.50000  0.29564
E62   E   0.20436  0.75000  0.95436
E63   E   0.20436  0.79564  0.00000
E64   E   0.20436  0.95436  0.75000
E65   E   0.20436  0.00000  0.79564
E66   E   0.20436  0.25000  0.45436
E67   E   0.20436  0.29564  0.50000
E68   E   0.20436  0.45436  0.25000
E69   E   0.20436  0.50000  0.29564
E70   E   0.20436  0.75000  0.95436
E71   E   0.20436  0.79564  0.00000
E72   E   0.20436  0.95436  0.75000
E73   E   0.22346  0.02654  0.60581
E74   E   0.22346  0.02654  0.60581
E75   E   0.22346  0.10581  0.52654
E76   E   0.22346  0.14419  0.72346
E77   E   0.22346  0.22346  0.64419
E78   E   0.22346  0.52654  0.10581
E79   E   0.22346  0.60581  0.02654
E80   E   0.22346  0.60581  0.02654
E81   E   0.22346  0.64419  0.22346
E82   E   0.22346  0.72346  0.14419
E83   E   0.25000  0.04564  0.79564
E84   E   0.25000  0.04564  0.79564
E85   E   0.25000  0.20436  0.45436
E86   E   0.25000  0.20436  0.45436
E87   E   0.25000  0.29564  0.54564
E88   E   0.25000  0.45436  0.20436
E89   E   0.25000  0.45436  0.20436
E90   E   0.25000  0.54564  0.29564
E91   E   0.25000  0.70436  0.95436
E92   E   0.25000  0.79564  0.04564
E93   E   0.25000  0.79564  0.04564
E94   E   0.25000  0.95436  0.70436
E95   E   0.27654  0.27654  0.35581
E96   E   0.27654  0.35581  0.27654
E97   E   0.27654  0.39419  0.47346
E98   E   0.27654  0.47346  0.39419
E99   E   0.27654  0.77654  0.85581
E100  E   0.27654  0.85581  0.77654
E101  E   0.27654  0.89419  0.97346
E102  E   0.27654  0.97346  0.89419
E103  E   0.29564  0.00000  0.70436
E104  E   0.29564  0.04564  0.75000
E105  E   0.29564  0.04564  0.75000
E106  E   0.29564  0.20436  0.50000
E107  E   0.29564  0.20436  0.50000
E108  E   0.29564  0.25000  0.54564
E109  E   0.29564  0.50000  0.20436
E110  E   0.29564  0.50000  0.20436
E111  E   0.29564  0.54564  0.25000
E112  E   0.29564  0.70436  0.00000
E113  E   0.29564  0.75000  0.04564
E114  E   0.29564  0.75000  0.04564
E115  E   0.35581  0.27654  0.27654
E116  E   0.35581  0.47346  0.47346
E117  E   0.35581  0.77654  0.77654
E118  E   0.35581  0.97346  0.97346
E119  E   0.39419  0.27654  0.47346
E120  E   0.39419  0.47346  0.27654
E121  E   0.39419  0.77654  0.97346
E122  E   0.39419  0.97346  0.77654
E123  E   0.45436  0.00000  0.04564
E124  E   0.45436  0.00000  0.04564
E125  E   0.45436  0.04564  0.00000
E126  E   0.45436  0.04564  0.00000
E127  E   0.45436  0.20436  0.25000
E128  E   0.45436  0.20436  0.25000
E129  E   0.45436  0.25000  0.20436
E130  E   0.45436  0.25000  0.20436
E131  E   0.45436  0.50000  0.54564
E132  E   0.45436  0.54564  0.50000
E133  E   0.45436  0.70436  0.75000
E134  E   0.45436  0.75000  0.70436
E135  E   0.47346  0.27654  0.39419
E136  E   0.47346  0.35581  0.47346
E137  E   0.47346  0.39419  0.27654
E138  E   0.47346  0.47346  0.35581
E139  E   0.47346  0.77654  0.89419
E140  E   0.47346  0.85581  0.97346
E141  E   0.47346  0.89419  0.77654
E142  E   0.47346  0.97346  0.85581
E143  E   0.50000  0.04564  0.95436
E144  E   0.50000  0.04564  0.95436
E145  E   0.50000  0.20436  0.29564
E146  E   0.50000  0.20436  0.29564
E147  E   0.50000  0.29564  0.20436
E148  E   0.50000  0.29564  0.20436
E149  E   0.50000  0.45436  0.54564
E150  E   0.50000  0.54564  0.45436
E151  E   0.50000  0.70436  0.79564
E152  E   0.50000  0.79564  0.70436
E153  E   0.50000  0.95436  0.04564
E154  E   0.50000  0.95436  0.04564
E155  E   0.52654  0.02654  0.14419
E156  E   0.52654  0.02654  0.14419
E157  E   0.52654  0.10581  0.22346
E158  E   0.52654  0.14419  0.02654
E159  E   0.52654  0.14419  0.02654
E160  E   0.52654  0.22346  0.10581
E161  E   0.52654  0.52654  0.64419
E162  E   0.52654  0.60581  0.72346
E163  E   0.52654  0.64419  0.52654
E164  E   0.52654  0.72346  0.60581
E165  E   0.54564  0.00000  0.95436
E166  E   0.54564  0.25000  0.29564
E167  E   0.54564  0.29564  0.25000
E168  E   0.54564  0.45436  0.50000
E169  E   0.54564  0.50000  0.45436
E170  E   0.54564  0.75000  0.79564
E171  E   0.54564  0.79564  0.75000
E172  E   0.54564  0.95436  0.00000
E173  E   0.60581  0.02654  0.22346
E174  E   0.60581  0.02654  0.22346
E175  E   0.60581  0.22346  0.02654
E176  E   0.60581  0.22346  0.02654
E177  E   0.60581  0.52654  0.72346
E178  E   0.60581  0.72346  0.52654
E179  E   0.64419  0.02654  0.02654
E180  E   0.64419  0.02654  0.02654
E181  E   0.64419  0.22346  0.22346
E182  E   0.64419  0.52654  0.52654
E183  E   0.64419  0.72346  0.72346
E184  E   0.70436  0.00000  0.29564
E185  E   0.70436  0.25000  0.95436
E186  E   0.70436  0.29564  0.00000
E187  E   0.70436  0.45436  0.75000
E188  E   0.70436  0.50000  0.79564
E189  E   0.70436  0.75000  0.45436
E190  E   0.70436  0.79564  0.50000
E191  E   0.70436  0.95436  0.25000
E192  E   0.72346  0.02654  0.10581
E193  E   0.72346  0.02654  0.10581
E194  E   0.72346  0.10581  0.02654
E195  E   0.72346  0.10581  0.02654
E196  E   0.72346  0.14419  0.22346
E197  E   0.72346  0.22346  0.14419
E198  E   0.72346  0.52654  0.60581
E199  E   0.72346  0.60581  0.52654
E200  E   0.72346  0.64419  0.72346
E201  E   0.72346  0.72346  0.64419
E202  E   0.75000  0.04564  0.29564
E203  E   0.75000  0.04564  0.29564
E204  E   0.75000  0.20436  0.95436
E205  E   0.75000  0.20436  0.95436
E206  E   0.75000  0.29564  0.04564
E207  E   0.75000  0.29564  0.04564
E208  E   0.75000  0.45436  0.70436
E209  E   0.75000  0.54564  0.79564
E210  E   0.75000  0.70436  0.45436
E211  E   0.75000  0.79564  0.54564
E212  E   0.75000  0.95436  0.20436
E213  E   0.75000  0.95436  0.20436
E214  E   0.77654  0.27654  0.85581
E215  E   0.77654  0.35581  0.77654
E216  E   0.77654  0.39419  0.97346
E217  E   0.77654  0.47346  0.89419
E218  E   0.77654  0.77654  0.35581
E219  E   0.77654  0.85581  0.27654
E220  E   0.77654  0.89419  0.47346
E221  E   0.77654  0.97346  0.39419
E222  E   0.79564  0.00000  0.20436
E223  E   0.79564  0.00000  0.20436
E224  E   0.79564  0.04564  0.25000
E225  E   0.79564  0.04564  0.25000
E226  E   0.79564  0.20436  0.00000
E227  E   0.79564  0.20436  0.00000
E228  E   0.79564  0.25000  0.04564
E229  E   0.79564  0.25000  0.04564
E230  E   0.79564  0.50000  0.70436
E231  E   0.79564  0.54564  0.75000
E232  E   0.79564  0.70436  0.50000
E233  E   0.79564  0.75000  0.54564
E234  E   0.85581  0.27654  0.77654
E235  E   0.85581  0.47346  0.97346
E236  E   0.85581  0.77654  0.27654
E237  E   0.85581  0.97346  0.47346
E238  E   0.89419  0.27654  0.97346
E239  E   0.89419  0.47346  0.77654
E240  E   0.89419  0.77654  0.47346
E241  E   0.89419  0.97346  0.27654
E242  E   0.95436  0.00000  0.54564
E243  E   0.95436  0.04564  0.50000
E244  E   0.95436  0.04564  0.50000
E245  E   0.95436  0.20436  0.75000
E246  E   0.95436  0.20436  0.75000
E247  E   0.95436  0.25000  0.70436
E248  E   0.95436  0.50000  0.04564
E249  E   0.95436  0.50000  0.04564
E250  E   0.95436  0.54564  0.00000
E251  E   0.95436  0.70436  0.25000
E252  E   0.95436  0.75000  0.20436
E253  E   0.95436  0.75000  0.20436
E254  E   0.97346  0.27654  0.89419
E255  E   0.97346  0.35581  0.97346
E256  E   0.97346  0.39419  0.77654
E257  E   0.97346  0.47346  0.85581
E258  E   0.97346  0.77654  0.39419
E259  E   0.97346  0.85581  0.47346
E260  E   0.97346  0.89419  0.27654
E261  E   0.97346  0.97346  0.35581
loop_
