data_qza_P6422  hall_number: 475, V_con: 4, EC_con: 3
_audit_creation_date              2025-03-06
_audit_creation_method            'MOFbuilder_1.0'
_symmetry_space_group_name_H-M    'P1'
_symmetry_Int_Tables_number       1
_symmetry_cell_setting            triclinic
loop_
_symmetry_equiv_pos_as_xyz
  x,y,z
_cell_length_a                    23.0875
_cell_length_b                    23.0875
_cell_length_c                    38.7517
_cell_angle_alpha                 90.0
_cell_angle_beta                  90.0
_cell_angle_gamma                 120.0
loop_
_atom_site_label
_atom_site_type_symbol
_atom_site_fract_x
_atom_site_fract_y
_atom_site_fract_z
V1    V   0.00000  0.50000  0.33333
V2    V   0.50000  0.00000  0.00000
V3    V   0.50000  0.50000  0.66667
EC1    EC   0.25008  0.62504  0.83333
EC2    EC   0.25008  0.62504  0.83334
EC3    EC   0.37496  0.62504  0.16666
EC4    EC   0.37496  0.74992  0.50000
EC5    EC   0.37496  0.62504  0.16667
EC6    EC   0.37496  0.74992  0.50000
EC7    EC   0.62504  0.25008  0.50000
EC8    EC   0.62504  0.25008  0.50000
EC9    EC   0.62504  0.37496  0.16667
EC10   EC   0.62504  0.37496  0.16666
EC11   EC   0.74992  0.37496  0.83333
EC12   EC   0.74992  0.37496  0.83334
E1    E   0.00000  0.50000  0.83333
E2    E   0.00000  0.50000  0.83334
E3    E   0.18748  0.56252  0.25000
E4    E   0.18748  0.62496  0.41666
E5    E   0.37504  0.56252  0.75000
E6    E   0.37504  0.81252  0.91667
E7    E   0.43748  0.62496  0.58334
E8    E   0.43748  0.81252  0.08333
E9    E   0.50000  0.00000  0.50000
E10   E   0.50000  0.00000  0.50000
E11   E   0.50000  0.50000  0.16666
E12   E   0.50000  0.50000  0.16667
E13   E   0.56252  0.18748  0.08333
E14   E   0.56252  0.37504  0.58334
E15   E   0.62496  0.18748  0.91667
E16   E   0.62496  0.43748  0.75000
E17   E   0.81252  0.37504  0.41666
E18   E   0.81252  0.43748  0.25000
loop_
