data_raa_C12/m1  hall_number: 71, V_con: 3, EC_con: 3
_audit_creation_date              2025-03-06
_audit_creation_method            'MOFbuilder_1.0'
_symmetry_space_group_name_H-M    'P1'
_symmetry_Int_Tables_number       1
_symmetry_cell_setting            triclinic
loop_
_symmetry_equiv_pos_as_xyz
  x,y,z
_cell_length_a                    35.4525
_cell_length_b                    57.5328
_cell_length_c                    29.0321
_cell_angle_alpha                 90.0
_cell_angle_beta                  109.2139
_cell_angle_gamma                 90.0
loop_
_atom_site_label
_atom_site_type_symbol
_atom_site_fract_x
_atom_site_fract_y
_atom_site_fract_z
V1    V   0.04950  0.41309  0.18238
V2    V   0.04950  0.58691  0.81762
V3    V   0.45050  0.08691  0.31762
V4    V   0.45050  0.91309  0.68238
V5    V   0.54950  0.08691  0.31762
V6    V   0.54950  0.91309  0.68238
V7    V   0.95050  0.41309  0.18238
V8    V   0.95050  0.58691  0.81762
EC1    EC   0.12089  0.29369  0.44745
EC2    EC   0.12089  0.70631  0.55255
EC3    EC   0.37911  0.20631  0.05255
EC4    EC   0.37911  0.79369  0.94745
EC5    EC   0.62089  0.20631  0.05255
EC6    EC   0.62089  0.79369  0.94745
EC7    EC   0.87911  0.29369  0.44745
EC8    EC   0.87911  0.70631  0.55255
E1    E   0.00000  0.29369  0.50000
E2    E   0.00000  0.41309  0.00000
E3    E   0.00000  0.58691  0.00000
E4    E   0.00000  0.70631  0.50000
E5    E   0.04950  0.50000  0.18238
E6    E   0.04950  0.50000  0.81762
E7    E   0.08520  0.35339  0.31492
E8    E   0.08520  0.64661  0.68508
E9    E   0.25000  0.25000  0.00000
E10   E   0.25000  0.25000  0.50000
E11   E   0.25000  0.75000  0.00000
E12   E   0.25000  0.75000  0.50000
E13   E   0.41480  0.14661  0.18508
E14   E   0.41480  0.85339  0.81492
E15   E   0.45050  0.00000  0.31762
E16   E   0.45050  0.00000  0.68238
E17   E   0.50000  0.08691  0.50000
E18   E   0.50000  0.20631  0.00000
E19   E   0.50000  0.79369  0.00000
E20   E   0.50000  0.91309  0.50000
E21   E   0.54950  0.00000  0.31762
E22   E   0.54950  0.00000  0.68238
E23   E   0.58520  0.14661  0.18508
E24   E   0.58520  0.85339  0.81492
E25   E   0.75000  0.25000  0.00000
E26   E   0.75000  0.25000  0.50000
E27   E   0.75000  0.75000  0.00000
E28   E   0.75000  0.75000  0.50000
E29   E   0.91480  0.35339  0.31492
E30   E   0.91480  0.64661  0.68508
E31   E   0.95050  0.50000  0.18238
E32   E   0.95050  0.50000  0.81762
loop_
