data_rab_Cccm  hall_number: 313, V_con: 3, EC_con: 3
_audit_creation_date              2025-03-06
_audit_creation_method            'MOFbuilder_1.0'
_symmetry_space_group_name_H-M    'P1'
_symmetry_Int_Tables_number       1
_symmetry_cell_setting            triclinic
loop_
_symmetry_equiv_pos_as_xyz
  x,y,z
_cell_length_a                    33.4905
_cell_length_b                    56.9731
_cell_length_c                    58.5914
_cell_angle_alpha                 90.0
_cell_angle_beta                  90.0
_cell_angle_gamma                 90.0
loop_
_atom_site_label
_atom_site_type_symbol
_atom_site_fract_x
_atom_site_fract_y
_atom_site_fract_z
V1    V   0.12147  0.20535  0.29961
V2    V   0.12147  0.20535  0.70039
V3    V   0.12147  0.79465  0.20039
V4    V   0.12147  0.79465  0.79961
V5    V   0.37853  0.29465  0.29961
V6    V   0.37853  0.29465  0.70039
V7    V   0.37853  0.70535  0.20039
V8    V   0.37853  0.70535  0.79961
V9    V   0.62147  0.29465  0.20039
V10   V   0.62147  0.29465  0.79961
V11   V   0.62147  0.70535  0.29961
V12   V   0.62147  0.70535  0.70039
V13   V   0.87853  0.20535  0.20039
V14   V   0.87853  0.20535  0.79961
V15   V   0.87853  0.79465  0.29961
V16   V   0.87853  0.79465  0.70039
EC1    EC   0.04896  0.08291  0.41466
EC2    EC   0.04896  0.08291  0.58534
EC3    EC   0.04896  0.91709  0.08534
EC4    EC   0.04896  0.91709  0.91466
EC5    EC   0.45104  0.41709  0.41466
EC6    EC   0.45104  0.41709  0.58534
EC7    EC   0.45104  0.58291  0.08534
EC8    EC   0.45104  0.58291  0.91466
EC9    EC   0.54896  0.41709  0.08534
EC10   EC   0.54896  0.41709  0.91466
EC11   EC   0.54896  0.58291  0.41466
EC12   EC   0.54896  0.58291  0.58534
EC13   EC   0.95104  0.08291  0.08534
EC14   EC   0.95104  0.08291  0.91466
EC15   EC   0.95104  0.91709  0.41466
EC16   EC   0.95104  0.91709  0.58534
E1    E   0.00000  0.00000  0.08534
E2    E   0.00000  0.00000  0.41466
E3    E   0.00000  0.00000  0.58534
E4    E   0.00000  0.00000  0.91466
E5    E   0.00000  0.20535  0.25000
E6    E   0.00000  0.20535  0.75000
E7    E   0.00000  0.79465  0.25000
E8    E   0.00000  0.79465  0.75000
E9    E   0.04896  0.08291  0.50000
E10   E   0.04896  0.91709  0.00000
E11   E   0.08521  0.14413  0.35714
E12   E   0.08521  0.14413  0.64286
E13   E   0.08521  0.85587  0.14286
E14   E   0.08521  0.85587  0.85714
E15   E   0.25000  0.25000  0.29961
E16   E   0.25000  0.25000  0.70039
E17   E   0.25000  0.75000  0.20039
E18   E   0.25000  0.75000  0.79961
E19   E   0.41479  0.35587  0.35714
E20   E   0.41479  0.35587  0.64286
E21   E   0.41479  0.64413  0.14286
E22   E   0.41479  0.64413  0.85714
E23   E   0.45104  0.41709  0.50000
E24   E   0.45104  0.58291  0.00000
E25   E   0.50000  0.29465  0.25000
E26   E   0.50000  0.29465  0.75000
E27   E   0.50000  0.50000  0.08534
E28   E   0.50000  0.50000  0.41466
E29   E   0.50000  0.50000  0.58534
E30   E   0.50000  0.50000  0.91466
E31   E   0.50000  0.70535  0.25000
E32   E   0.50000  0.70535  0.75000
E33   E   0.54896  0.41709  0.00000
E34   E   0.54896  0.58291  0.50000
E35   E   0.58521  0.35587  0.14286
E36   E   0.58521  0.35587  0.85714
E37   E   0.58521  0.64413  0.35714
E38   E   0.58521  0.64413  0.64286
E39   E   0.75000  0.25000  0.20039
E40   E   0.75000  0.25000  0.79961
E41   E   0.75000  0.75000  0.29961
E42   E   0.75000  0.75000  0.70039
E43   E   0.91479  0.14413  0.14286
E44   E   0.91479  0.14413  0.85714
E45   E   0.91479  0.85587  0.35714
E46   E   0.91479  0.85587  0.64286
E47   E   0.95104  0.08291  0.00000
E48   E   0.95104  0.91709  0.50000
loop_
