data_rho_Im-3m  hall_number: 529, V_con: 4
_audit_creation_date              2025-03-06
_audit_creation_method            'MOFbuilder_1.0'
_symmetry_space_group_name_H-M    'P1'
_symmetry_Int_Tables_number       1
_symmetry_cell_setting            triclinic
loop_
_symmetry_equiv_pos_as_xyz
  x,y,z
_cell_length_a                    48.2843
_cell_length_b                    48.2843
_cell_length_c                    48.2843
_cell_angle_alpha                 90.0
_cell_angle_beta                  90.0
_cell_angle_gamma                 90.0
loop_
_atom_site_label
_atom_site_type_symbol
_atom_site_fract_x
_atom_site_fract_y
_atom_site_fract_z
V1    V   0.10355  0.25000  0.39645
V2    V   0.10355  0.25000  0.60355
V3    V   0.10355  0.39645  0.25000
V4    V   0.10355  0.39645  0.75000
V5    V   0.10355  0.60355  0.25000
V6    V   0.10355  0.60355  0.75000
V7    V   0.10355  0.75000  0.39645
V8    V   0.10355  0.75000  0.60355
V9    V   0.10355  0.25000  0.39645
V10   V   0.10355  0.25000  0.60355
V11   V   0.10355  0.39645  0.25000
V12   V   0.10355  0.39645  0.75000
V13   V   0.10355  0.60355  0.25000
V14   V   0.10355  0.60355  0.75000
V15   V   0.10355  0.75000  0.39645
V16   V   0.10355  0.75000  0.60355
V17   V   0.25000  0.10355  0.39645
V18   V   0.25000  0.10355  0.60355
V19   V   0.25000  0.10355  0.39645
V20   V   0.25000  0.10355  0.60355
V21   V   0.25000  0.39645  0.10355
V22   V   0.25000  0.39645  0.89645
V23   V   0.25000  0.39645  0.10355
V24   V   0.25000  0.39645  0.89645
V25   V   0.25000  0.60355  0.10355
V26   V   0.25000  0.60355  0.10355
V27   V   0.25000  0.60355  0.89645
V28   V   0.25000  0.89645  0.39645
V29   V   0.25000  0.89645  0.39645
V30   V   0.25000  0.89645  0.60355
V31   V   0.39645  0.10355  0.25000
V32   V   0.39645  0.10355  0.75000
V33   V   0.39645  0.25000  0.10355
V34   V   0.39645  0.25000  0.89645
V35   V   0.39645  0.75000  0.10355
V36   V   0.39645  0.75000  0.89645
V37   V   0.39645  0.89645  0.25000
V38   V   0.39645  0.89645  0.75000
V39   V   0.39645  0.10355  0.25000
V40   V   0.39645  0.10355  0.75000
V41   V   0.39645  0.25000  0.10355
V42   V   0.39645  0.25000  0.89645
V43   V   0.39645  0.75000  0.10355
V44   V   0.39645  0.75000  0.89645
V45   V   0.39645  0.89645  0.25000
V46   V   0.39645  0.89645  0.75000
V47   V   0.60355  0.10355  0.25000
V48   V   0.60355  0.10355  0.75000
V49   V   0.60355  0.10355  0.25000
V50   V   0.60355  0.10355  0.75000
V51   V   0.60355  0.25000  0.10355
V52   V   0.60355  0.25000  0.10355
V53   V   0.60355  0.25000  0.89645
V54   V   0.60355  0.75000  0.10355
V55   V   0.60355  0.75000  0.10355
V56   V   0.60355  0.75000  0.89645
V57   V   0.60355  0.89645  0.25000
V58   V   0.60355  0.89645  0.75000
V59   V   0.75000  0.10355  0.39645
V60   V   0.75000  0.10355  0.60355
V61   V   0.75000  0.10355  0.39645
V62   V   0.75000  0.10355  0.60355
V63   V   0.75000  0.39645  0.10355
V64   V   0.75000  0.39645  0.89645
V65   V   0.75000  0.39645  0.10355
V66   V   0.75000  0.39645  0.89645
V67   V   0.75000  0.60355  0.10355
V68   V   0.75000  0.60355  0.10355
V69   V   0.75000  0.60355  0.89645
V70   V   0.75000  0.89645  0.39645
V71   V   0.75000  0.89645  0.39645
V72   V   0.75000  0.89645  0.60355
V73   V   0.89645  0.25000  0.39645
V74   V   0.89645  0.25000  0.39645
V75   V   0.89645  0.25000  0.60355
V76   V   0.89645  0.39645  0.25000
V77   V   0.89645  0.39645  0.75000
V78   V   0.89645  0.39645  0.25000
V79   V   0.89645  0.39645  0.75000
V80   V   0.89645  0.60355  0.25000
V81   V   0.89645  0.60355  0.75000
V82   V   0.89645  0.75000  0.39645
V83   V   0.89645  0.75000  0.39645
V84   V   0.89645  0.75000  0.60355
E1    E   0.00000  0.25000  0.39645
E2    E   0.00000  0.25000  0.60355
E3    E   0.00000  0.39645  0.25000
E4    E   0.00000  0.39645  0.75000
E5    E   0.00000  0.60355  0.25000
E6    E   0.00000  0.60355  0.75000
E7    E   0.00000  0.75000  0.39645
E8    E   0.00000  0.75000  0.60355
E9    E   0.10355  0.25000  0.50000
E10   E   0.10355  0.32322  0.32322
E11   E   0.10355  0.32322  0.67678
E12   E   0.10355  0.50000  0.25000
E13   E   0.10355  0.50000  0.75000
E14   E   0.10355  0.67678  0.32322
E15   E   0.10355  0.67678  0.67678
E16   E   0.10355  0.75000  0.50000
E17   E   0.17678  0.17678  0.39645
E18   E   0.17678  0.17678  0.60355
E19   E   0.17678  0.39645  0.17678
E20   E   0.17678  0.39645  0.82322
E21   E   0.17678  0.60355  0.17678
E22   E   0.17678  0.60355  0.82322
E23   E   0.17678  0.82322  0.39645
E24   E   0.17678  0.82322  0.60355
E25   E   0.25000  0.00000  0.39645
E26   E   0.25000  0.00000  0.60355
E27   E   0.25000  0.10355  0.50000
E28   E   0.25000  0.39645  0.00000
E29   E   0.25000  0.50000  0.10355
E30   E   0.25000  0.50000  0.89645
E31   E   0.25000  0.60355  0.00000
E32   E   0.25000  0.89645  0.50000
E33   E   0.32322  0.10355  0.32322
E34   E   0.32322  0.10355  0.67678
E35   E   0.32322  0.32322  0.10355
E36   E   0.32322  0.32322  0.89645
E37   E   0.32322  0.67678  0.10355
E38   E   0.32322  0.67678  0.89645
E39   E   0.32322  0.89645  0.32322
E40   E   0.32322  0.89645  0.67678
E41   E   0.39645  0.00000  0.25000
E42   E   0.39645  0.00000  0.75000
E43   E   0.39645  0.17678  0.17678
E44   E   0.39645  0.17678  0.82322
E45   E   0.39645  0.25000  0.00000
E46   E   0.39645  0.75000  0.00000
E47   E   0.39645  0.82322  0.17678
E48   E   0.39645  0.82322  0.82322
E49   E   0.50000  0.10355  0.25000
E50   E   0.50000  0.10355  0.75000
E51   E   0.50000  0.25000  0.10355
E52   E   0.50000  0.25000  0.89645
E53   E   0.50000  0.75000  0.10355
E54   E   0.50000  0.75000  0.89645
E55   E   0.50000  0.89645  0.25000
E56   E   0.50000  0.89645  0.75000
E57   E   0.60355  0.00000  0.25000
E58   E   0.60355  0.00000  0.75000
E59   E   0.60355  0.17678  0.17678
E60   E   0.60355  0.17678  0.82322
E61   E   0.60355  0.25000  0.00000
E62   E   0.60355  0.75000  0.00000
E63   E   0.60355  0.82322  0.17678
E64   E   0.60355  0.82322  0.82322
E65   E   0.67678  0.10355  0.32322
E66   E   0.67678  0.10355  0.67678
E67   E   0.67678  0.32322  0.10355
E68   E   0.67678  0.32322  0.89645
E69   E   0.67678  0.67678  0.10355
E70   E   0.67678  0.67678  0.89645
E71   E   0.67678  0.89645  0.32322
E72   E   0.67678  0.89645  0.67678
E73   E   0.75000  0.00000  0.39645
E74   E   0.75000  0.00000  0.60355
E75   E   0.75000  0.10355  0.50000
E76   E   0.75000  0.39645  0.00000
E77   E   0.75000  0.50000  0.10355
E78   E   0.75000  0.50000  0.89645
E79   E   0.75000  0.60355  0.00000
E80   E   0.75000  0.89645  0.50000
E81   E   0.82322  0.17678  0.39645
E82   E   0.82322  0.17678  0.60355
E83   E   0.82322  0.39645  0.17678
E84   E   0.82322  0.39645  0.82322
E85   E   0.82322  0.60355  0.17678
E86   E   0.82322  0.60355  0.82322
E87   E   0.82322  0.82322  0.39645
E88   E   0.82322  0.82322  0.60355
E89   E   0.89645  0.25000  0.50000
E90   E   0.89645  0.32322  0.32322
E91   E   0.89645  0.32322  0.67678
E92   E   0.89645  0.50000  0.25000
E93   E   0.89645  0.50000  0.75000
E94   E   0.89645  0.67678  0.32322
E95   E   0.89645  0.67678  0.67678
E96   E   0.89645  0.75000  0.50000
loop_
