data_rht-a_Fm-3m  hall_number: 523, V_con: 5, EC_con: 3
_audit_creation_date              2025-03-06
_audit_creation_method            'MOFbuilder_1.0'
_symmetry_space_group_name_H-M    'P1'
_symmetry_Int_Tables_number       1
_symmetry_cell_setting            triclinic
loop_
_symmetry_equiv_pos_as_xyz
  x,y,z
_cell_length_a                    72.779
_cell_length_b                    72.779
_cell_length_c                    72.779
_cell_angle_alpha                 90.0
_cell_angle_beta                  90.0
_cell_angle_gamma                 90.0
loop_
_atom_site_label
_atom_site_type_symbol
_atom_site_fract_x
_atom_site_fract_y
_atom_site_fract_z
V1    V   0.06870  0.06870  0.33414
V2    V   0.06870  0.06870  0.66586
V3    V   0.06870  0.16586  0.43130
V4    V   0.06870  0.16586  0.56870
V5    V   0.06870  0.33414  0.06870
V6    V   0.06870  0.33414  0.93130
V7    V   0.06870  0.43130  0.16586
V8    V   0.06870  0.43130  0.83414
V9    V   0.06870  0.56870  0.16586
V10   V   0.06870  0.56870  0.83414
V11   V   0.06870  0.66586  0.06870
V12   V   0.06870  0.66586  0.93130
V13   V   0.06870  0.83414  0.43130
V14   V   0.06870  0.83414  0.56870
V15   V   0.06870  0.93130  0.33414
V16   V   0.06870  0.93130  0.66586
V17   V   0.16586  0.06870  0.43130
V18   V   0.16586  0.06870  0.56870
V19   V   0.16586  0.43130  0.06870
V20   V   0.16586  0.43130  0.93130
V21   V   0.16586  0.56870  0.06870
V22   V   0.16586  0.56870  0.93130
V23   V   0.16586  0.93130  0.43130
V24   V   0.16586  0.93130  0.56870
V25   V   0.33414  0.06870  0.06870
V26   V   0.33414  0.06870  0.93130
V27   V   0.33414  0.43130  0.43130
V28   V   0.33414  0.43130  0.56870
V29   V   0.33414  0.56870  0.43130
V30   V   0.33414  0.56870  0.56870
V31   V   0.33414  0.93130  0.06870
V32   V   0.33414  0.93130  0.93130
V33   V   0.43130  0.06870  0.16586
V34   V   0.43130  0.06870  0.83414
V35   V   0.43130  0.16586  0.06870
V36   V   0.43130  0.16586  0.93130
V37   V   0.43130  0.33414  0.43130
V38   V   0.43130  0.33414  0.56870
V39   V   0.43130  0.43130  0.33414
V40   V   0.43130  0.43130  0.66586
V41   V   0.43130  0.56870  0.33414
V42   V   0.43130  0.56870  0.66586
V43   V   0.43130  0.66586  0.43130
V44   V   0.43130  0.66586  0.56870
V45   V   0.43130  0.83414  0.06870
V46   V   0.43130  0.83414  0.93130
V47   V   0.43130  0.93130  0.16586
V48   V   0.43130  0.93130  0.83414
V49   V   0.56870  0.06870  0.16586
V50   V   0.56870  0.06870  0.83414
V51   V   0.56870  0.16586  0.06870
V52   V   0.56870  0.16586  0.93130
V53   V   0.56870  0.33414  0.43130
V54   V   0.56870  0.33414  0.56870
V55   V   0.56870  0.43130  0.33414
V56   V   0.56870  0.43130  0.66586
V57   V   0.56870  0.56870  0.33414
V58   V   0.56870  0.56870  0.66586
V59   V   0.56870  0.66586  0.43130
V60   V   0.56870  0.66586  0.56870
V61   V   0.56870  0.83414  0.06870
V62   V   0.56870  0.83414  0.93130
V63   V   0.56870  0.93130  0.16586
V64   V   0.56870  0.93130  0.83414
V65   V   0.66586  0.06870  0.06870
V66   V   0.66586  0.06870  0.93130
V67   V   0.66586  0.43130  0.43130
V68   V   0.66586  0.43130  0.56870
V69   V   0.66586  0.56870  0.43130
V70   V   0.66586  0.56870  0.56870
V71   V   0.66586  0.93130  0.06870
V72   V   0.66586  0.93130  0.93130
V73   V   0.83414  0.06870  0.43130
V74   V   0.83414  0.06870  0.56870
V75   V   0.83414  0.43130  0.06870
V76   V   0.83414  0.43130  0.93130
V77   V   0.83414  0.56870  0.06870
V78   V   0.83414  0.56870  0.93130
V79   V   0.83414  0.93130  0.43130
V80   V   0.83414  0.93130  0.56870
V81   V   0.93130  0.06870  0.33414
V82   V   0.93130  0.06870  0.66586
V83   V   0.93130  0.16586  0.43130
V84   V   0.93130  0.16586  0.56870
V85   V   0.93130  0.33414  0.06870
V86   V   0.93130  0.33414  0.93130
V87   V   0.93130  0.43130  0.16586
V88   V   0.93130  0.43130  0.83414
V89   V   0.93130  0.56870  0.16586
V90   V   0.93130  0.56870  0.83414
V91   V   0.93130  0.66586  0.06870
V92   V   0.93130  0.66586  0.93130
V93   V   0.93130  0.83414  0.43130
V94   V   0.93130  0.83414  0.56870
V95   V   0.93130  0.93130  0.33414
V96   V   0.93130  0.93130  0.66586
EC1    EC   0.12444  0.12444  0.22159
EC2    EC   0.12444  0.12444  0.77841
EC3    EC   0.12444  0.22159  0.12444
EC4    EC   0.12444  0.22159  0.87556
EC5    EC   0.12444  0.27841  0.37556
EC6    EC   0.12444  0.27841  0.62444
EC7    EC   0.12444  0.37556  0.27841
EC8    EC   0.12444  0.37556  0.72159
EC9    EC   0.12444  0.62444  0.27841
EC10   EC   0.12444  0.62444  0.72159
EC11   EC   0.12444  0.72159  0.37556
EC12   EC   0.12444  0.72159  0.62444
EC13   EC   0.12444  0.77841  0.12444
EC14   EC   0.12444  0.77841  0.87556
EC15   EC   0.12444  0.87556  0.22159
EC16   EC   0.12444  0.87556  0.77841
EC17   EC   0.22159  0.12444  0.12444
EC18   EC   0.22159  0.12444  0.87556
EC19   EC   0.22159  0.37556  0.37556
EC20   EC   0.22159  0.37556  0.62444
EC21   EC   0.22159  0.62444  0.37556
EC22   EC   0.22159  0.62444  0.62444
EC23   EC   0.22159  0.87556  0.12444
EC24   EC   0.22159  0.87556  0.87556
EC25   EC   0.27841  0.12444  0.37556
EC26   EC   0.27841  0.12444  0.62444
EC27   EC   0.27841  0.37556  0.12444
EC28   EC   0.27841  0.37556  0.87556
EC29   EC   0.27841  0.62444  0.12444
EC30   EC   0.27841  0.62444  0.87556
EC31   EC   0.27841  0.87556  0.37556
EC32   EC   0.27841  0.87556  0.62444
EC33   EC   0.37556  0.12444  0.27841
EC34   EC   0.37556  0.12444  0.72159
EC35   EC   0.37556  0.22159  0.37556
EC36   EC   0.37556  0.22159  0.62444
EC37   EC   0.37556  0.27841  0.12444
EC38   EC   0.37556  0.27841  0.87556
EC39   EC   0.37556  0.37556  0.22159
EC40   EC   0.37556  0.37556  0.77841
EC41   EC   0.37556  0.62444  0.22159
EC42   EC   0.37556  0.62444  0.77841
EC43   EC   0.37556  0.72159  0.12444
EC44   EC   0.37556  0.72159  0.87556
EC45   EC   0.37556  0.77841  0.37556
EC46   EC   0.37556  0.77841  0.62444
EC47   EC   0.37556  0.87556  0.27841
EC48   EC   0.37556  0.87556  0.72159
EC49   EC   0.62444  0.12444  0.27841
EC50   EC   0.62444  0.12444  0.72159
EC51   EC   0.62444  0.22159  0.37556
EC52   EC   0.62444  0.22159  0.62444
EC53   EC   0.62444  0.27841  0.12444
EC54   EC   0.62444  0.27841  0.87556
EC55   EC   0.62444  0.37556  0.22159
EC56   EC   0.62444  0.37556  0.77841
EC57   EC   0.62444  0.62444  0.22159
EC58   EC   0.62444  0.62444  0.77841
EC59   EC   0.62444  0.72159  0.12444
EC60   EC   0.62444  0.72159  0.87556
EC61   EC   0.62444  0.77841  0.37556
EC62   EC   0.62444  0.77841  0.62444
EC63   EC   0.62444  0.87556  0.27841
EC64   EC   0.62444  0.87556  0.72159
EC65   EC   0.72159  0.12444  0.37556
EC66   EC   0.72159  0.12444  0.62444
EC67   EC   0.72159  0.37556  0.12444
EC68   EC   0.72159  0.37556  0.87556
EC69   EC   0.72159  0.62444  0.12444
EC70   EC   0.72159  0.62444  0.87556
EC71   EC   0.72159  0.87556  0.37556
EC72   EC   0.72159  0.87556  0.62444
EC73   EC   0.77841  0.12444  0.12444
EC74   EC   0.77841  0.12444  0.87556
EC75   EC   0.77841  0.37556  0.37556
EC76   EC   0.77841  0.37556  0.62444
EC77   EC   0.77841  0.62444  0.37556
EC78   EC   0.77841  0.62444  0.62444
EC79   EC   0.77841  0.87556  0.12444
EC80   EC   0.77841  0.87556  0.87556
EC81   EC   0.87556  0.12444  0.22159
EC82   EC   0.87556  0.12444  0.77841
EC83   EC   0.87556  0.22159  0.12444
EC84   EC   0.87556  0.22159  0.87556
EC85   EC   0.87556  0.27841  0.37556
EC86   EC   0.87556  0.27841  0.62444
EC87   EC   0.87556  0.37556  0.27841
EC88   EC   0.87556  0.37556  0.72159
EC89   EC   0.87556  0.62444  0.27841
EC90   EC   0.87556  0.62444  0.72159
EC91   EC   0.87556  0.72159  0.37556
EC92   EC   0.87556  0.72159  0.62444
EC93   EC   0.87556  0.77841  0.12444
EC94   EC   0.87556  0.77841  0.87556
EC95   EC   0.87556  0.87556  0.22159
EC96   EC   0.87556  0.87556  0.77841
E1    E   0.00000  0.06870  0.33414
E2    E   0.00000  0.06870  0.66586
E3    E   0.00000  0.16586  0.43130
E4    E   0.00000  0.16586  0.56870
E5    E   0.00000  0.33414  0.06870
E6    E   0.00000  0.33414  0.93130
E7    E   0.00000  0.43130  0.16586
E8    E   0.00000  0.43130  0.83414
E9    E   0.00000  0.56870  0.16586
E10   E   0.00000  0.56870  0.83414
E11   E   0.00000  0.66586  0.06870
E12   E   0.00000  0.66586  0.93130
E13   E   0.00000  0.83414  0.43130
E14   E   0.00000  0.83414  0.56870
E15   E   0.00000  0.93130  0.33414
E16   E   0.00000  0.93130  0.66586
E17   E   0.06870  0.00000  0.33414
E18   E   0.06870  0.00000  0.66586
E19   E   0.06870  0.11728  0.38272
E20   E   0.06870  0.11728  0.61728
E21   E   0.06870  0.16586  0.50000
E22   E   0.06870  0.33414  0.00000
E23   E   0.06870  0.38272  0.11728
E24   E   0.06870  0.38272  0.88272
E25   E   0.06870  0.50000  0.16586
E26   E   0.06870  0.50000  0.83414
E27   E   0.06870  0.61728  0.11728
E28   E   0.06870  0.61728  0.88272
E29   E   0.06870  0.66586  0.00000
E30   E   0.06870  0.83414  0.50000
E31   E   0.06870  0.88272  0.38272
E32   E   0.06870  0.88272  0.61728
E33   E   0.09657  0.09657  0.27787
E34   E   0.09657  0.09657  0.72213
E35   E   0.09657  0.22213  0.40343
E36   E   0.09657  0.22213  0.59657
E37   E   0.09657  0.27787  0.09657
E38   E   0.09657  0.27787  0.90343
E39   E   0.09657  0.40343  0.22213
E40   E   0.09657  0.40343  0.77787
E41   E   0.09657  0.59657  0.22213
E42   E   0.09657  0.59657  0.77787
E43   E   0.09657  0.72213  0.09657
E44   E   0.09657  0.72213  0.90343
E45   E   0.09657  0.77787  0.40343
E46   E   0.09657  0.77787  0.59657
E47   E   0.09657  0.90343  0.27787
E48   E   0.09657  0.90343  0.72213
E49   E   0.11728  0.06870  0.38272
E50   E   0.11728  0.06870  0.61728
E51   E   0.11728  0.11728  0.43130
E52   E   0.11728  0.11728  0.56870
E53   E   0.11728  0.38272  0.06870
E54   E   0.11728  0.38272  0.93130
E55   E   0.11728  0.43130  0.11728
E56   E   0.11728  0.43130  0.88272
E57   E   0.11728  0.56870  0.11728
E58   E   0.11728  0.56870  0.88272
E59   E   0.11728  0.61728  0.06870
E60   E   0.11728  0.61728  0.93130
E61   E   0.11728  0.88272  0.43130
E62   E   0.11728  0.88272  0.56870
E63   E   0.11728  0.93130  0.38272
E64   E   0.11728  0.93130  0.61728
E65   E   0.12444  0.17302  0.17302
E66   E   0.12444  0.17302  0.82698
E67   E   0.12444  0.32698  0.32698
E68   E   0.12444  0.32698  0.67302
E69   E   0.12444  0.67302  0.32698
E70   E   0.12444  0.67302  0.67302
E71   E   0.12444  0.82698  0.17302
E72   E   0.12444  0.82698  0.82698
E73   E   0.16586  0.00000  0.43130
E74   E   0.16586  0.00000  0.56870
E75   E   0.16586  0.06870  0.50000
E76   E   0.16586  0.43130  0.00000
E77   E   0.16586  0.50000  0.06870
E78   E   0.16586  0.50000  0.93130
E79   E   0.16586  0.56870  0.00000
E80   E   0.16586  0.93130  0.50000
E81   E   0.17302  0.12444  0.17302
E82   E   0.17302  0.12444  0.82698
E83   E   0.17302  0.17302  0.12444
E84   E   0.17302  0.17302  0.87556
E85   E   0.17302  0.32698  0.37556
E86   E   0.17302  0.32698  0.62444
E87   E   0.17302  0.37556  0.32698
E88   E   0.17302  0.37556  0.67302
E89   E   0.17302  0.62444  0.32698
E90   E   0.17302  0.62444  0.67302
E91   E   0.17302  0.67302  0.37556
E92   E   0.17302  0.67302  0.62444
E93   E   0.17302  0.82698  0.12444
E94   E   0.17302  0.82698  0.87556
E95   E   0.17302  0.87556  0.17302
E96   E   0.17302  0.87556  0.82698
E97   E   0.22213  0.09657  0.40343
E98   E   0.22213  0.09657  0.59657
E99   E   0.22213  0.40343  0.09657
E100  E   0.22213  0.40343  0.90343
E101  E   0.22213  0.59657  0.09657
E102  E   0.22213  0.59657  0.90343
E103  E   0.22213  0.90343  0.40343
E104  E   0.22213  0.90343  0.59657
E105  E   0.27787  0.09657  0.09657
E106  E   0.27787  0.09657  0.90343
E107  E   0.27787  0.40343  0.40343
E108  E   0.27787  0.40343  0.59657
E109  E   0.27787  0.59657  0.40343
E110  E   0.27787  0.59657  0.59657
E111  E   0.27787  0.90343  0.09657
E112  E   0.27787  0.90343  0.90343
E113  E   0.32698  0.12444  0.32698
E114  E   0.32698  0.12444  0.67302
E115  E   0.32698  0.17302  0.37556
E116  E   0.32698  0.17302  0.62444
E117  E   0.32698  0.32698  0.12444
E118  E   0.32698  0.32698  0.87556
E119  E   0.32698  0.37556  0.17302
E120  E   0.32698  0.37556  0.82698
E121  E   0.32698  0.62444  0.17302
E122  E   0.32698  0.62444  0.82698
E123  E   0.32698  0.67302  0.12444
E124  E   0.32698  0.67302  0.87556
E125  E   0.32698  0.82698  0.37556
E126  E   0.32698  0.82698  0.62444
E127  E   0.32698  0.87556  0.32698
E128  E   0.32698  0.87556  0.67302
E129  E   0.33414  0.00000  0.06870
E130  E   0.33414  0.00000  0.93130
E131  E   0.33414  0.06870  0.00000
E132  E   0.33414  0.43130  0.50000
E133  E   0.33414  0.50000  0.43130
E134  E   0.33414  0.50000  0.56870
E135  E   0.33414  0.56870  0.50000
E136  E   0.33414  0.93130  0.00000
E137  E   0.37556  0.17302  0.32698
E138  E   0.37556  0.17302  0.67302
E139  E   0.37556  0.32698  0.17302
E140  E   0.37556  0.32698  0.82698
E141  E   0.37556  0.67302  0.17302
E142  E   0.37556  0.67302  0.82698
E143  E   0.37556  0.82698  0.32698
E144  E   0.37556  0.82698  0.67302
E145  E   0.38272  0.06870  0.11728
E146  E   0.38272  0.06870  0.88272
E147  E   0.38272  0.11728  0.06870
E148  E   0.38272  0.11728  0.93130
E149  E   0.38272  0.38272  0.43130
E150  E   0.38272  0.38272  0.56870
E151  E   0.38272  0.43130  0.38272
E152  E   0.38272  0.43130  0.61728
E153  E   0.38272  0.56870  0.38272
E154  E   0.38272  0.56870  0.61728
E155  E   0.38272  0.61728  0.43130
E156  E   0.38272  0.61728  0.56870
E157  E   0.38272  0.88272  0.06870
E158  E   0.38272  0.88272  0.93130
E159  E   0.38272  0.93130  0.11728
E160  E   0.38272  0.93130  0.88272
E161  E   0.40343  0.09657  0.22213
E162  E   0.40343  0.09657  0.77787
E163  E   0.40343  0.22213  0.09657
E164  E   0.40343  0.22213  0.90343
E165  E   0.40343  0.27787  0.40343
E166  E   0.40343  0.27787  0.59657
E167  E   0.40343  0.40343  0.27787
E168  E   0.40343  0.40343  0.72213
E169  E   0.40343  0.59657  0.27787
E170  E   0.40343  0.59657  0.72213
E171  E   0.40343  0.72213  0.40343
E172  E   0.40343  0.72213  0.59657
E173  E   0.40343  0.77787  0.09657
E174  E   0.40343  0.77787  0.90343
E175  E   0.40343  0.90343  0.22213
E176  E   0.40343  0.90343  0.77787
E177  E   0.43130  0.00000  0.16586
E178  E   0.43130  0.00000  0.83414
E179  E   0.43130  0.11728  0.11728
E180  E   0.43130  0.11728  0.88272
E181  E   0.43130  0.16586  0.00000
E182  E   0.43130  0.33414  0.50000
E183  E   0.43130  0.38272  0.38272
E184  E   0.43130  0.38272  0.61728
E185  E   0.43130  0.50000  0.33414
E186  E   0.43130  0.50000  0.66586
E187  E   0.43130  0.61728  0.38272
E188  E   0.43130  0.61728  0.61728
E189  E   0.43130  0.66586  0.50000
E190  E   0.43130  0.83414  0.00000
E191  E   0.43130  0.88272  0.11728
E192  E   0.43130  0.88272  0.88272
E193  E   0.50000  0.06870  0.16586
E194  E   0.50000  0.06870  0.83414
E195  E   0.50000  0.16586  0.06870
E196  E   0.50000  0.16586  0.93130
E197  E   0.50000  0.33414  0.43130
E198  E   0.50000  0.33414  0.56870
E199  E   0.50000  0.43130  0.33414
E200  E   0.50000  0.43130  0.66586
E201  E   0.50000  0.56870  0.33414
E202  E   0.50000  0.56870  0.66586
E203  E   0.50000  0.66586  0.43130
E204  E   0.50000  0.66586  0.56870
E205  E   0.50000  0.83414  0.06870
E206  E   0.50000  0.83414  0.93130
E207  E   0.50000  0.93130  0.16586
E208  E   0.50000  0.93130  0.83414
E209  E   0.56870  0.00000  0.16586
E210  E   0.56870  0.00000  0.83414
E211  E   0.56870  0.11728  0.11728
E212  E   0.56870  0.11728  0.88272
E213  E   0.56870  0.16586  0.00000
E214  E   0.56870  0.33414  0.50000
E215  E   0.56870  0.38272  0.38272
E216  E   0.56870  0.38272  0.61728
E217  E   0.56870  0.50000  0.33414
E218  E   0.56870  0.50000  0.66586
E219  E   0.56870  0.61728  0.38272
E220  E   0.56870  0.61728  0.61728
E221  E   0.56870  0.66586  0.50000
E222  E   0.56870  0.83414  0.00000
E223  E   0.56870  0.88272  0.11728
E224  E   0.56870  0.88272  0.88272
E225  E   0.59657  0.09657  0.22213
E226  E   0.59657  0.09657  0.77787
E227  E   0.59657  0.22213  0.09657
E228  E   0.59657  0.22213  0.90343
E229  E   0.59657  0.27787  0.40343
E230  E   0.59657  0.27787  0.59657
E231  E   0.59657  0.40343  0.27787
E232  E   0.59657  0.40343  0.72213
E233  E   0.59657  0.59657  0.27787
E234  E   0.59657  0.59657  0.72213
E235  E   0.59657  0.72213  0.40343
E236  E   0.59657  0.72213  0.59657
E237  E   0.59657  0.77787  0.09657
E238  E   0.59657  0.77787  0.90343
E239  E   0.59657  0.90343  0.22213
E240  E   0.59657  0.90343  0.77787
E241  E   0.61728  0.06870  0.11728
E242  E   0.61728  0.06870  0.88272
E243  E   0.61728  0.11728  0.06870
E244  E   0.61728  0.11728  0.93130
E245  E   0.61728  0.38272  0.43130
E246  E   0.61728  0.38272  0.56870
E247  E   0.61728  0.43130  0.38272
E248  E   0.61728  0.43130  0.61728
E249  E   0.61728  0.56870  0.38272
E250  E   0.61728  0.56870  0.61728
E251  E   0.61728  0.61728  0.43130
E252  E   0.61728  0.61728  0.56870
E253  E   0.61728  0.88272  0.06870
E254  E   0.61728  0.88272  0.93130
E255  E   0.61728  0.93130  0.11728
E256  E   0.61728  0.93130  0.88272
E257  E   0.62444  0.17302  0.32698
E258  E   0.62444  0.17302  0.67302
E259  E   0.62444  0.32698  0.17302
E260  E   0.62444  0.32698  0.82698
E261  E   0.62444  0.67302  0.17302
E262  E   0.62444  0.67302  0.82698
E263  E   0.62444  0.82698  0.32698
E264  E   0.62444  0.82698  0.67302
E265  E   0.66586  0.00000  0.06870
E266  E   0.66586  0.00000  0.93130
E267  E   0.66586  0.06870  0.00000
E268  E   0.66586  0.43130  0.50000
E269  E   0.66586  0.50000  0.43130
E270  E   0.66586  0.50000  0.56870
E271  E   0.66586  0.56870  0.50000
E272  E   0.66586  0.93130  0.00000
E273  E   0.67302  0.12444  0.32698
E274  E   0.67302  0.12444  0.67302
E275  E   0.67302  0.17302  0.37556
E276  E   0.67302  0.17302  0.62444
E277  E   0.67302  0.32698  0.12444
E278  E   0.67302  0.32698  0.87556
E279  E   0.67302  0.37556  0.17302
E280  E   0.67302  0.37556  0.82698
E281  E   0.67302  0.62444  0.17302
E282  E   0.67302  0.62444  0.82698
E283  E   0.67302  0.67302  0.12444
E284  E   0.67302  0.67302  0.87556
E285  E   0.67302  0.82698  0.37556
E286  E   0.67302  0.82698  0.62444
E287  E   0.67302  0.87556  0.32698
E288  E   0.67302  0.87556  0.67302
E289  E   0.72213  0.09657  0.09657
E290  E   0.72213  0.09657  0.90343
E291  E   0.72213  0.40343  0.40343
E292  E   0.72213  0.40343  0.59657
E293  E   0.72213  0.59657  0.40343
E294  E   0.72213  0.59657  0.59657
E295  E   0.72213  0.90343  0.09657
E296  E   0.72213  0.90343  0.90343
E297  E   0.77787  0.09657  0.40343
E298  E   0.77787  0.09657  0.59657
E299  E   0.77787  0.40343  0.09657
E300  E   0.77787  0.40343  0.90343
E301  E   0.77787  0.59657  0.09657
E302  E   0.77787  0.59657  0.90343
E303  E   0.77787  0.90343  0.40343
E304  E   0.77787  0.90343  0.59657
E305  E   0.82698  0.12444  0.17302
E306  E   0.82698  0.12444  0.82698
E307  E   0.82698  0.17302  0.12444
E308  E   0.82698  0.17302  0.87556
E309  E   0.82698  0.32698  0.37556
E310  E   0.82698  0.32698  0.62444
E311  E   0.82698  0.37556  0.32698
E312  E   0.82698  0.37556  0.67302
E313  E   0.82698  0.62444  0.32698
E314  E   0.82698  0.62444  0.67302
E315  E   0.82698  0.67302  0.37556
E316  E   0.82698  0.67302  0.62444
E317  E   0.82698  0.82698  0.12444
E318  E   0.82698  0.82698  0.87556
E319  E   0.82698  0.87556  0.17302
E320  E   0.82698  0.87556  0.82698
E321  E   0.83414  0.00000  0.43130
E322  E   0.83414  0.00000  0.56870
E323  E   0.83414  0.06870  0.50000
E324  E   0.83414  0.43130  0.00000
E325  E   0.83414  0.50000  0.06870
E326  E   0.83414  0.50000  0.93130
E327  E   0.83414  0.56870  0.00000
E328  E   0.83414  0.93130  0.50000
E329  E   0.87556  0.17302  0.17302
E330  E   0.87556  0.17302  0.82698
E331  E   0.87556  0.32698  0.32698
E332  E   0.87556  0.32698  0.67302
E333  E   0.87556  0.67302  0.32698
E334  E   0.87556  0.67302  0.67302
E335  E   0.87556  0.82698  0.17302
E336  E   0.87556  0.82698  0.82698
E337  E   0.88272  0.06870  0.38272
E338  E   0.88272  0.06870  0.61728
E339  E   0.88272  0.11728  0.43130
E340  E   0.88272  0.11728  0.56870
E341  E   0.88272  0.38272  0.06870
E342  E   0.88272  0.38272  0.93130
E343  E   0.88272  0.43130  0.11728
E344  E   0.88272  0.43130  0.88272
E345  E   0.88272  0.56870  0.11728
E346  E   0.88272  0.56870  0.88272
E347  E   0.88272  0.61728  0.06870
E348  E   0.88272  0.61728  0.93130
E349  E   0.88272  0.88272  0.43130
E350  E   0.88272  0.88272  0.56870
E351  E   0.88272  0.93130  0.38272
E352  E   0.88272  0.93130  0.61728
E353  E   0.90343  0.09657  0.27787
E354  E   0.90343  0.09657  0.72213
E355  E   0.90343  0.22213  0.40343
E356  E   0.90343  0.22213  0.59657
E357  E   0.90343  0.27787  0.09657
E358  E   0.90343  0.27787  0.90343
E359  E   0.90343  0.40343  0.22213
E360  E   0.90343  0.40343  0.77787
E361  E   0.90343  0.59657  0.22213
E362  E   0.90343  0.59657  0.77787
E363  E   0.90343  0.72213  0.09657
E364  E   0.90343  0.72213  0.90343
E365  E   0.90343  0.77787  0.40343
E366  E   0.90343  0.77787  0.59657
E367  E   0.90343  0.90343  0.27787
E368  E   0.90343  0.90343  0.72213
E369  E   0.93130  0.00000  0.33414
E370  E   0.93130  0.00000  0.66586
E371  E   0.93130  0.11728  0.38272
E372  E   0.93130  0.11728  0.61728
E373  E   0.93130  0.16586  0.50000
E374  E   0.93130  0.33414  0.00000
E375  E   0.93130  0.38272  0.11728
E376  E   0.93130  0.38272  0.88272
E377  E   0.93130  0.50000  0.16586
E378  E   0.93130  0.50000  0.83414
E379  E   0.93130  0.61728  0.11728
E380  E   0.93130  0.61728  0.88272
E381  E   0.93130  0.66586  0.00000
E382  E   0.93130  0.83414  0.50000
E383  E   0.93130  0.88272  0.38272
E384  E   0.93130  0.88272  0.61728
loop_
