data_rht_Fm-3m  hall_number: 523, V_con: 24, EC_con: 3
_audit_creation_date              2025-03-06
_audit_creation_method            'MOFbuilder_1.0'
_symmetry_space_group_name_H-M    'P1'
_symmetry_Int_Tables_number       1
_symmetry_cell_setting            triclinic
loop_
_symmetry_equiv_pos_as_xyz
  x,y,z
_cell_length_a                    24.4949
_cell_length_b                    24.4949
_cell_length_c                    24.4949
_cell_angle_alpha                 90.0
_cell_angle_beta                  90.0
_cell_angle_gamma                 90.0
loop_
_atom_site_label
_atom_site_type_symbol
_atom_site_fract_x
_atom_site_fract_y
_atom_site_fract_z
V1    V   0.00000  0.00000  0.00000
V2    V   0.00000  0.50000  0.50000
V3    V   0.50000  0.00000  0.50000
V4    V   0.50000  0.50000  0.00000
EC1    EC   0.16667  0.16667  0.33333
EC2    EC   0.16667  0.16667  0.66667
EC3    EC   0.16667  0.33333  0.16667
EC4    EC   0.16667  0.33333  0.83333
EC5    EC   0.16667  0.66667  0.16667
EC6    EC   0.16667  0.66667  0.83333
EC7    EC   0.16667  0.83333  0.33333
EC8    EC   0.16667  0.83333  0.66667
EC9    EC   0.16667  0.16667  0.33333
EC10   EC   0.16667  0.16667  0.66667
EC11   EC   0.16667  0.16667  0.33333
EC12   EC   0.16667  0.16667  0.66667
EC13   EC   0.16667  0.33333  0.16667
EC14   EC   0.16667  0.33333  0.16667
EC15   EC   0.16667  0.33333  0.83333
EC16   EC   0.16667  0.66667  0.16667
EC17   EC   0.16667  0.66667  0.16667
EC18   EC   0.16667  0.66667  0.83333
EC19   EC   0.16667  0.83333  0.33333
EC20   EC   0.16667  0.83333  0.66667
EC21   EC   0.33333  0.16667  0.16667
EC22   EC   0.33333  0.16667  0.83333
EC23   EC   0.33333  0.16667  0.16667
EC24   EC   0.33333  0.16667  0.16667
EC25   EC   0.33333  0.16667  0.83333
EC26   EC   0.33333  0.33333  0.33333
EC27   EC   0.33333  0.33333  0.66667
EC28   EC   0.33333  0.66667  0.33333
EC29   EC   0.33333  0.66667  0.66667
EC30   EC   0.33333  0.83333  0.16667
EC31   EC   0.33333  0.83333  0.16667
EC32   EC   0.33333  0.83333  0.83333
EC33   EC   0.66667  0.16667  0.16667
EC34   EC   0.66667  0.16667  0.83333
EC35   EC   0.66667  0.16667  0.16667
EC36   EC   0.66667  0.16667  0.16667
EC37   EC   0.66667  0.16667  0.83333
EC38   EC   0.66667  0.33333  0.33333
EC39   EC   0.66667  0.33333  0.66667
EC40   EC   0.66667  0.66667  0.33333
EC41   EC   0.66667  0.66667  0.66667
EC42   EC   0.66667  0.83333  0.16667
EC43   EC   0.66667  0.83333  0.16667
EC44   EC   0.66667  0.83333  0.83333
EC45   EC   0.83333  0.16667  0.33333
EC46   EC   0.83333  0.16667  0.66667
EC47   EC   0.83333  0.16667  0.33333
EC48   EC   0.83333  0.16667  0.66667
EC49   EC   0.83333  0.33333  0.16667
EC50   EC   0.83333  0.33333  0.16667
EC51   EC   0.83333  0.33333  0.83333
EC52   EC   0.83333  0.66667  0.16667
EC53   EC   0.83333  0.66667  0.16667
EC54   EC   0.83333  0.66667  0.83333
EC55   EC   0.83333  0.83333  0.33333
EC56   EC   0.83333  0.83333  0.66667
E1    E   0.08333  0.08333  0.16666
E2    E   0.08333  0.08333  0.83334
E3    E   0.08333  0.16666  0.08333
E4    E   0.08333  0.16666  0.91667
E5    E   0.08333  0.33334  0.41667
E6    E   0.08333  0.33334  0.58333
E7    E   0.08333  0.41667  0.33334
E8    E   0.08333  0.41667  0.66666
E9    E   0.08333  0.58333  0.33334
E10   E   0.08333  0.58333  0.66666
E11   E   0.08333  0.66666  0.41667
E12   E   0.08333  0.66666  0.58333
E13   E   0.08333  0.83334  0.08333
E14   E   0.08333  0.83334  0.91667
E15   E   0.08333  0.91667  0.16666
E16   E   0.08333  0.91667  0.83334
E17   E   0.16666  0.08333  0.08333
E18   E   0.16666  0.08333  0.91667
E19   E   0.16666  0.41667  0.41667
E20   E   0.16666  0.41667  0.58333
E21   E   0.16666  0.58333  0.41667
E22   E   0.16666  0.58333  0.58333
E23   E   0.16666  0.91667  0.08333
E24   E   0.16666  0.91667  0.91667
E25   E   0.33334  0.08333  0.41667
E26   E   0.33334  0.08333  0.58333
E27   E   0.33334  0.41667  0.08333
E28   E   0.33334  0.41667  0.91667
E29   E   0.33334  0.58333  0.08333
E30   E   0.33334  0.58333  0.91667
E31   E   0.33334  0.91667  0.41667
E32   E   0.33334  0.91667  0.58333
E33   E   0.41667  0.08333  0.33334
E34   E   0.41667  0.08333  0.66666
E35   E   0.41667  0.16666  0.41667
E36   E   0.41667  0.16666  0.58333
E37   E   0.41667  0.33334  0.08333
E38   E   0.41667  0.33334  0.91667
E39   E   0.41667  0.41667  0.16666
E40   E   0.41667  0.41667  0.83334
E41   E   0.41667  0.58333  0.16666
E42   E   0.41667  0.58333  0.83334
E43   E   0.41667  0.66666  0.08333
E44   E   0.41667  0.66666  0.91667
E45   E   0.41667  0.83334  0.41667
E46   E   0.41667  0.83334  0.58333
E47   E   0.41667  0.91667  0.33334
E48   E   0.41667  0.91667  0.66666
E49   E   0.58333  0.08333  0.33334
E50   E   0.58333  0.08333  0.66666
E51   E   0.58333  0.16666  0.41667
E52   E   0.58333  0.16666  0.58333
E53   E   0.58333  0.33334  0.08333
E54   E   0.58333  0.33334  0.91667
E55   E   0.58333  0.41667  0.16666
E56   E   0.58333  0.41667  0.83334
E57   E   0.58333  0.58333  0.16666
E58   E   0.58333  0.58333  0.83334
E59   E   0.58333  0.66666  0.08333
E60   E   0.58333  0.66666  0.91667
E61   E   0.58333  0.83334  0.41667
E62   E   0.58333  0.83334  0.58333
E63   E   0.58333  0.91667  0.33334
E64   E   0.58333  0.91667  0.66666
E65   E   0.66666  0.08333  0.41667
E66   E   0.66666  0.08333  0.58333
E67   E   0.66666  0.41667  0.08333
E68   E   0.66666  0.41667  0.91667
E69   E   0.66666  0.58333  0.08333
E70   E   0.66666  0.58333  0.91667
E71   E   0.66666  0.91667  0.41667
E72   E   0.66666  0.91667  0.58333
E73   E   0.83334  0.08333  0.08333
E74   E   0.83334  0.08333  0.91667
E75   E   0.83334  0.41667  0.41667
E76   E   0.83334  0.41667  0.58333
E77   E   0.83334  0.58333  0.41667
E78   E   0.83334  0.58333  0.58333
E79   E   0.83334  0.91667  0.08333
E80   E   0.83334  0.91667  0.91667
E81   E   0.91667  0.08333  0.16666
E82   E   0.91667  0.08333  0.83334
E83   E   0.91667  0.16666  0.08333
E84   E   0.91667  0.16666  0.91667
E85   E   0.91667  0.33334  0.41667
E86   E   0.91667  0.33334  0.58333
E87   E   0.91667  0.41667  0.33334
E88   E   0.91667  0.41667  0.66666
E89   E   0.91667  0.58333  0.33334
E90   E   0.91667  0.58333  0.66666
E91   E   0.91667  0.66666  0.41667
E92   E   0.91667  0.66666  0.58333
E93   E   0.91667  0.83334  0.08333
E94   E   0.91667  0.83334  0.91667
E95   E   0.91667  0.91667  0.16666
E96   E   0.91667  0.91667  0.83334
loop_
