data_scu-a_P4/mmm  hall_number: 400, V_con: 4, EC_con: 3
_audit_creation_date              2025-03-06
_audit_creation_method            'MOFbuilder_1.0'
_symmetry_space_group_name_H-M    'P1'
_symmetry_Int_Tables_number       1
_symmetry_cell_setting            triclinic
loop_
_symmetry_equiv_pos_as_xyz
  x,y,z
_cell_length_a                    40.8652
_cell_length_b                    40.8652
_cell_length_c                    30.9699
_cell_angle_alpha                 90.0
_cell_angle_beta                  90.0
_cell_angle_gamma                 90.0
loop_
_atom_site_label
_atom_site_type_symbol
_atom_site_fract_x
_atom_site_fract_y
_atom_site_fract_z
V1    V   0.00000  0.17303  0.33855
V2    V   0.00000  0.17303  0.66145
V3    V   0.00000  0.82697  0.33855
V4    V   0.00000  0.82697  0.66145
V5    V   0.17303  0.00000  0.33855
V6    V   0.17303  0.00000  0.66145
V7    V   0.82697  0.00000  0.33855
V8    V   0.82697  0.00000  0.66145
EC1    EC   0.00000  0.37765  0.16145
EC2    EC   0.00000  0.37765  0.83855
EC3    EC   0.00000  0.62235  0.16145
EC4    EC   0.00000  0.62235  0.83855
EC5    EC   0.37765  0.00000  0.16145
EC6    EC   0.37765  0.00000  0.83855
EC7    EC   0.62235  0.00000  0.16145
EC8    EC   0.62235  0.00000  0.83855
E1    E   0.00000  0.17303  0.50000
E2    E   0.00000  0.27534  0.25000
E3    E   0.00000  0.27534  0.75000
E4    E   0.00000  0.37765  0.00000
E5    E   0.00000  0.50000  0.16145
E6    E   0.00000  0.50000  0.83855
E7    E   0.00000  0.62235  0.00000
E8    E   0.00000  0.72466  0.25000
E9    E   0.00000  0.72466  0.75000
E10   E   0.00000  0.82697  0.50000
E11   E   0.08652  0.08652  0.33855
E12   E   0.08652  0.08652  0.66145
E13   E   0.08652  0.91348  0.33855
E14   E   0.08652  0.91348  0.66145
E15   E   0.17303  0.00000  0.50000
E16   E   0.27534  0.00000  0.25000
E17   E   0.27534  0.00000  0.75000
E18   E   0.37765  0.00000  0.00000
E19   E   0.50000  0.00000  0.16145
E20   E   0.50000  0.00000  0.83855
E21   E   0.62235  0.00000  0.00000
E22   E   0.72466  0.00000  0.25000
E23   E   0.72466  0.00000  0.75000
E24   E   0.82697  0.00000  0.50000
E25   E   0.91348  0.08652  0.33855
E26   E   0.91348  0.08652  0.66145
E27   E   0.91348  0.91348  0.33855
E28   E   0.91348  0.91348  0.66145
loop_
