data_scu-h_P4/mmm  hall_number: 400, V_con: 4, EC_con: 4
_audit_creation_date              2025-03-06
_audit_creation_method            'MOFbuilder_1.0'
_symmetry_space_group_name_H-M    'P1'
_symmetry_Int_Tables_number       1
_symmetry_cell_setting            triclinic
loop_
_symmetry_equiv_pos_as_xyz
  x,y,z
_cell_length_a                    39.9602
_cell_length_b                    39.9602
_cell_length_c                    30.1143
_cell_angle_alpha                 90.0
_cell_angle_beta                  90.0
_cell_angle_gamma                 90.0
loop_
_atom_site_label
_atom_site_type_symbol
_atom_site_fract_x
_atom_site_fract_y
_atom_site_fract_z
V1    V   0.00000  0.18167  0.17048
V2    V   0.00000  0.18167  0.82952
V3    V   0.00000  0.81833  0.17048
V4    V   0.00000  0.81833  0.82952
V5    V   0.18167  0.00000  0.17048
V6    V   0.18167  0.00000  0.82952
V7    V   0.81833  0.00000  0.17048
V8    V   0.81833  0.00000  0.82952
EC1    EC   0.00000  0.39495  0.36060
EC2    EC   0.00000  0.39495  0.63940
EC3    EC   0.00000  0.60505  0.36060
EC4    EC   0.00000  0.60505  0.63940
EC5    EC   0.39495  0.00000  0.36060
EC6    EC   0.39495  0.00000  0.63940
EC7    EC   0.60505  0.00000  0.36060
EC8    EC   0.60505  0.00000  0.63940
E1    E   0.00000  0.18167  0.00000
E2    E   0.00000  0.28831  0.26554
E3    E   0.00000  0.28831  0.73446
E4    E   0.00000  0.39495  0.50000
E5    E   0.00000  0.50000  0.36060
E6    E   0.00000  0.50000  0.50000
E7    E   0.00000  0.50000  0.63940
E8    E   0.00000  0.60505  0.50000
E9    E   0.00000  0.71169  0.26554
E10   E   0.00000  0.71169  0.73446
E11   E   0.00000  0.81833  0.00000
E12   E   0.09084  0.09084  0.17048
E13   E   0.09084  0.09084  0.82952
E14   E   0.09084  0.90916  0.17048
E15   E   0.09084  0.90916  0.82952
E16   E   0.18167  0.00000  0.00000
E17   E   0.28831  0.00000  0.26554
E18   E   0.28831  0.00000  0.73446
E19   E   0.39495  0.00000  0.50000
E20   E   0.50000  0.00000  0.36060
E21   E   0.50000  0.00000  0.50000
E22   E   0.50000  0.00000  0.63940
E23   E   0.60505  0.00000  0.50000
E24   E   0.71169  0.00000  0.26554
E25   E   0.71169  0.00000  0.73446
E26   E   0.81833  0.00000  0.00000
E27   E   0.90916  0.09084  0.17048
E28   E   0.90916  0.09084  0.82952
E29   E   0.90916  0.90916  0.17048
E30   E   0.90916  0.90916  0.82952
loop_
