data_sep_P63mc  hall_number: 480, V_con: 9, EC_con: 3
_audit_creation_date              2025-03-06
_audit_creation_method            'MOFbuilder_1.0'
_symmetry_space_group_name_H-M    'P1'
_symmetry_Int_Tables_number       1
_symmetry_cell_setting            triclinic
loop_
_symmetry_equiv_pos_as_xyz
  x,y,z
_cell_length_a                    18.425
_cell_length_b                    18.425
_cell_length_c                    25.6719
_cell_angle_alpha                 90.0
_cell_angle_beta                  90.0
_cell_angle_gamma                 120.0
loop_
_atom_site_label
_atom_site_type_symbol
_atom_site_fract_x
_atom_site_fract_y
_atom_site_fract_z
V1    V   0.33333  0.66666  0.35931
V2    V   0.33333  0.66667  0.35931
V3    V   0.33334  0.66667  0.35931
V4    V   0.66666  0.33333  0.85931
V5    V   0.66667  0.33333  0.85931
V6    V   0.66667  0.33334  0.85931
EC1    EC   0.21364  0.42728  0.00000
EC2    EC   0.21364  0.78636  0.00000
EC3    EC   0.42728  0.21364  0.50000
EC4    EC   0.57272  0.78636  0.00000
EC5    EC   0.78636  0.21364  0.50000
EC6    EC   0.78636  0.57272  0.50000
E1    E   0.05985  0.44015  0.42965
E2    E   0.05985  0.61970  0.42965
E3    E   0.27348  0.54697  0.17965
E4    E   0.27348  0.72651  0.17965
E5    E   0.27349  0.54697  0.17965
E6    E   0.27349  0.72652  0.17965
E7    E   0.38030  0.44015  0.42965
E8    E   0.38030  0.94015  0.42965
E9    E   0.44015  0.05985  0.92965
E10   E   0.44015  0.38030  0.92965
E11   E   0.45303  0.72651  0.17965
E12   E   0.45303  0.72652  0.17965
E13   E   0.54697  0.27348  0.67965
E14   E   0.54697  0.27349  0.67965
E15   E   0.55985  0.61970  0.42965
E16   E   0.55985  0.94015  0.42965
E17   E   0.61970  0.05985  0.92965
E18   E   0.61970  0.55985  0.92965
E19   E   0.72651  0.27348  0.67965
E20   E   0.72651  0.45303  0.67965
E21   E   0.72652  0.27349  0.67965
E22   E   0.72652  0.45303  0.67965
E23   E   0.94015  0.38030  0.92965
E24   E   0.94015  0.55985  0.92965
loop_
