data_sgn_I4132  hall_number: 510, V_con: 3
_audit_creation_date              2025-03-06
_audit_creation_method            'MOFbuilder_1.0'
_symmetry_space_group_name_H-M    'P1'
_symmetry_Int_Tables_number       1
_symmetry_cell_setting            triclinic
loop_
_symmetry_equiv_pos_as_xyz
  x,y,z
_cell_length_a                    28.2846
_cell_length_b                    28.2846
_cell_length_c                    28.2846
_cell_angle_alpha                 90.0
_cell_angle_beta                  90.0
_cell_angle_gamma                 90.0
loop_
_atom_site_label
_atom_site_type_symbol
_atom_site_fract_x
_atom_site_fract_y
_atom_site_fract_z
V1    V   0.12500  0.12500  0.37500
V2    V   0.12500  0.12500  0.87500
V3    V   0.12500  0.37500  0.12500
V4    V   0.12500  0.62500  0.37500
V5    V   0.12500  0.87500  0.12500
V6    V   0.12500  0.87500  0.62500
V7    V   0.37500  0.12500  0.12500
V8    V   0.37500  0.12500  0.62500
V9    V   0.37500  0.37500  0.87500
V10   V   0.37500  0.62500  0.62500
V11   V   0.37500  0.87500  0.37500
V12   V   0.37500  0.87500  0.87500
V13   V   0.62500  0.12500  0.87500
V14   V   0.62500  0.37500  0.12500
V15   V   0.62500  0.37500  0.62500
V16   V   0.62500  0.62500  0.37500
V17   V   0.62500  0.62500  0.87500
V18   V   0.62500  0.87500  0.62500
V19   V   0.87500  0.12500  0.12500
V20   V   0.87500  0.37500  0.37500
V21   V   0.87500  0.37500  0.87500
V22   V   0.87500  0.62500  0.12500
V23   V   0.87500  0.62500  0.62500
V24   V   0.87500  0.87500  0.37500
E1    E   0.00000  0.12500  0.25000
E2    E   0.00000  0.25000  0.12500
E3    E   0.00000  0.37500  0.25000
E4    E   0.00000  0.62500  0.25000
E5    E   0.00000  0.75000  0.37500
E6    E   0.00000  0.87500  0.25000
E7    E   0.12500  0.00000  0.25000
E8    E   0.12500  0.25000  0.00000
E9    E   0.12500  0.75000  0.50000
E10   E   0.25000  0.00000  0.12500
E11   E   0.25000  0.00000  0.37500
E12   E   0.25000  0.00000  0.62500
E13   E   0.25000  0.00000  0.87500
E14   E   0.25000  0.12500  0.00000
E15   E   0.25000  0.87500  0.50000
E16   E   0.37500  0.00000  0.75000
E17   E   0.37500  0.25000  0.00000
E18   E   0.37500  0.75000  0.50000
E19   E   0.50000  0.12500  0.75000
E20   E   0.50000  0.25000  0.87500
E21   E   0.50000  0.37500  0.75000
E22   E   0.50000  0.62500  0.75000
E23   E   0.50000  0.75000  0.62500
E24   E   0.50000  0.87500  0.75000
E25   E   0.62500  0.25000  0.00000
E26   E   0.62500  0.50000  0.75000
E27   E   0.62500  0.75000  0.50000
E28   E   0.75000  0.37500  0.00000
E29   E   0.75000  0.50000  0.12500
E30   E   0.75000  0.50000  0.37500
E31   E   0.75000  0.50000  0.62500
E32   E   0.75000  0.50000  0.87500
E33   E   0.75000  0.62500  0.50000
E34   E   0.87500  0.25000  0.00000
E35   E   0.87500  0.50000  0.25000
E36   E   0.87500  0.75000  0.50000
loop_
