data_shy_Pm-3  hall_number: 494, V_con: 9
_audit_creation_date              2025-03-06
_audit_creation_method            'MOFbuilder_1.0'
_symmetry_space_group_name_H-M    'P1'
_symmetry_Int_Tables_number       1
_symmetry_cell_setting            triclinic
loop_
_symmetry_equiv_pos_as_xyz
  x,y,z
_cell_length_a                    16.1818
_cell_length_b                    16.1818
_cell_length_c                    16.1818
_cell_angle_alpha                 90.0
_cell_angle_beta                  90.0
_cell_angle_gamma                 90.0
loop_
_atom_site_label
_atom_site_type_symbol
_atom_site_fract_x
_atom_site_fract_y
_atom_site_fract_z
V1    V   0.00000  0.30887  0.50000
V2    V   0.00000  0.69113  0.50000
V3    V   0.30887  0.50000  0.00000
V4    V   0.50000  0.00000  0.30887
V5    V   0.50000  0.00000  0.69113
V6    V   0.69113  0.50000  0.00000
E1    E   0.00000  0.00000  0.50000
E2    E   0.00000  0.50000  0.00000
E3    E   0.15444  0.40444  0.25000
E4    E   0.15444  0.40444  0.75000
E5    E   0.15444  0.59556  0.25000
E6    E   0.15444  0.59556  0.75000
E7    E   0.25000  0.15444  0.40444
E8    E   0.25000  0.15444  0.59556
E9    E   0.25000  0.84556  0.40444
E10   E   0.25000  0.84556  0.59556
E11   E   0.40444  0.25000  0.15444
E12   E   0.40444  0.25000  0.84556
E13   E   0.40444  0.75000  0.15444
E14   E   0.40444  0.75000  0.84556
E15   E   0.50000  0.00000  0.00000
E16   E   0.59556  0.25000  0.15444
E17   E   0.59556  0.25000  0.84556
E18   E   0.59556  0.75000  0.15444
E19   E   0.59556  0.75000  0.84556
E20   E   0.75000  0.15444  0.40444
E21   E   0.75000  0.15444  0.59556
E22   E   0.75000  0.84556  0.40444
E23   E   0.75000  0.84556  0.59556
E24   E   0.84556  0.40444  0.25000
E25   E   0.84556  0.40444  0.75000
E26   E   0.84556  0.59556  0.25000
E27   E   0.84556  0.59556  0.75000
loop_
