data_siz_I4132  hall_number: 510, V_con: 3, EC_con: 3
_audit_creation_date              2025-03-06
_audit_creation_method            'MOFbuilder_1.0'
_symmetry_space_group_name_H-M    'P1'
_symmetry_Int_Tables_number       1
_symmetry_cell_setting            triclinic
loop_
_symmetry_equiv_pos_as_xyz
  x,y,z
_cell_length_a                    76.8531
_cell_length_b                    76.8531
_cell_length_c                    76.8531
_cell_angle_alpha                 90.0
_cell_angle_beta                  90.0
_cell_angle_gamma                 90.0
loop_
_atom_site_label
_atom_site_type_symbol
_atom_site_fract_x
_atom_site_fract_y
_atom_site_fract_z
V1    V   0.01506  0.14417  0.63564
V2    V   0.01506  0.85583  0.86436
V3    V   0.10583  0.23494  0.61436
V4    V   0.10583  0.76506  0.88564
V5    V   0.11436  0.39417  0.76506
V6    V   0.11436  0.60583  0.73494
V7    V   0.13564  0.48494  0.85583
V8    V   0.13564  0.51506  0.64417
V9    V   0.14417  0.36436  0.48494
V10   V   0.14417  0.63564  0.01506
V11   V   0.23494  0.38564  0.39417
V12   V   0.23494  0.61436  0.10583
V13   V   0.26506  0.38564  0.60583
V14   V   0.26506  0.61436  0.89417
V15   V   0.35583  0.36436  0.51506
V16   V   0.35583  0.63564  0.98494
V17   V   0.36436  0.48494  0.14417
V18   V   0.36436  0.51506  0.35583
V19   V   0.38564  0.39417  0.23494
V20   V   0.38564  0.60583  0.26506
V21   V   0.39417  0.23494  0.38564
V22   V   0.39417  0.76506  0.11436
V23   V   0.48494  0.14417  0.36436
V24   V   0.48494  0.85583  0.13564
V25   V   0.51506  0.35583  0.36436
V26   V   0.51506  0.64417  0.13564
V27   V   0.60583  0.26506  0.38564
V28   V   0.60583  0.73494  0.11436
V29   V   0.61436  0.10583  0.23494
V30   V   0.61436  0.89417  0.26506
V31   V   0.63564  0.01506  0.14417
V32   V   0.63564  0.98494  0.35583
V33   V   0.64417  0.13564  0.51506
V34   V   0.64417  0.86436  0.98494
V35   V   0.73494  0.11436  0.60583
V36   V   0.73494  0.88564  0.89417
V37   V   0.76506  0.11436  0.39417
V38   V   0.76506  0.88564  0.10583
V39   V   0.85583  0.13564  0.48494
V40   V   0.85583  0.86436  0.01506
V41   V   0.86436  0.01506  0.85583
V42   V   0.86436  0.98494  0.64417
V43   V   0.88564  0.10583  0.76506
V44   V   0.88564  0.89417  0.73494
V45   V   0.89417  0.26506  0.61436
V46   V   0.89417  0.73494  0.88564
V47   V   0.98494  0.35583  0.63564
V48   V   0.98494  0.64417  0.86436
EC1    EC   0.03299  0.45812  0.70020
EC2    EC   0.03299  0.54188  0.79980
EC3    EC   0.04188  0.29980  0.53299
EC4    EC   0.04188  0.70020  0.96701
EC5    EC   0.04980  0.29188  0.71701
EC6    EC   0.04980  0.70812  0.78299
EC7    EC   0.20020  0.46701  0.54188
EC8    EC   0.20020  0.53299  0.95812
EC9    EC   0.20812  0.28299  0.54980
EC10   EC   0.20812  0.71701  0.95020
EC11   EC   0.21701  0.45020  0.70812
EC12   EC   0.21701  0.54980  0.79188
EC13   EC   0.28299  0.45020  0.29188
EC14   EC   0.28299  0.54980  0.20812
EC15   EC   0.29188  0.28299  0.45020
EC16   EC   0.29188  0.71701  0.04980
EC17   EC   0.29980  0.46701  0.45812
EC18   EC   0.29980  0.53299  0.04188
EC19   EC   0.45020  0.29188  0.28299
EC20   EC   0.45020  0.70812  0.21701
EC21   EC   0.45812  0.29980  0.46701
EC22   EC   0.45812  0.70020  0.03299
EC23   EC   0.46701  0.45812  0.29980
EC24   EC   0.46701  0.54188  0.20020
EC25   EC   0.53299  0.04188  0.29980
EC26   EC   0.53299  0.95812  0.20020
EC27   EC   0.54188  0.20020  0.46701
EC28   EC   0.54188  0.79980  0.03299
EC29   EC   0.54980  0.20812  0.28299
EC30   EC   0.54980  0.79188  0.21701
EC31   EC   0.70020  0.03299  0.45812
EC32   EC   0.70020  0.96701  0.04188
EC33   EC   0.70812  0.21701  0.45020
EC34   EC   0.70812  0.78299  0.04980
EC35   EC   0.71701  0.04980  0.29188
EC36   EC   0.71701  0.95020  0.20812
EC37   EC   0.78299  0.04980  0.70812
EC38   EC   0.78299  0.95020  0.79188
EC39   EC   0.79188  0.21701  0.54980
EC40   EC   0.79188  0.78299  0.95020
EC41   EC   0.79980  0.03299  0.54188
EC42   EC   0.79980  0.96701  0.95812
EC43   EC   0.95020  0.20812  0.71701
EC44   EC   0.95020  0.79188  0.78299
EC45   EC   0.95812  0.20020  0.53299
EC46   EC   0.95812  0.79980  0.96701
EC47   EC   0.96701  0.04188  0.70020
EC48   EC   0.96701  0.95812  0.79980
E1    E   0.00000  0.25000  0.53299
E2    E   0.00000  0.25000  0.71701
E3    E   0.00000  0.75000  0.78299
E4    E   0.00000  0.75000  0.96701
E5    E   0.00897  0.40697  0.66792
E6    E   0.00897  0.59303  0.83208
E7    E   0.01341  0.32781  0.58432
E8    E   0.01341  0.67219  0.91568
E9    E   0.03299  0.50000  0.75000
E10   E   0.06044  0.18956  0.62500
E11   E   0.06044  0.18956  0.62500
E12   E   0.06044  0.81044  0.87500
E13   E   0.07781  0.26341  0.66568
E14   E   0.07781  0.73659  0.83432
E15   E   0.08208  0.34303  0.74103
E16   E   0.08208  0.65697  0.75897
E17   E   0.08432  0.48659  0.67219
E18   E   0.08432  0.51341  0.82781
E19   E   0.09303  0.33208  0.50897
E20   E   0.09303  0.66792  0.99103
E21   E   0.12500  0.43956  0.81044
E22   E   0.12500  0.56044  0.68956
E23   E   0.15697  0.25897  0.58208
E24   E   0.15697  0.74103  0.91792
E25   E   0.16568  0.42219  0.73659
E26   E   0.16568  0.57781  0.76341
E27   E   0.16792  0.49103  0.59303
E28   E   0.16792  0.50897  0.90697
E29   E   0.17219  0.41568  0.51341
E30   E   0.17219  0.58432  0.98659
E31   E   0.18956  0.37500  0.43956
E32   E   0.18956  0.62500  0.06044
E33   E   0.18956  0.37500  0.43956
E34   E   0.18956  0.62500  0.06044
E35   E   0.21701  0.50000  0.75000
E36   E   0.23659  0.33432  0.57781
E37   E   0.23659  0.66568  0.92219
E38   E   0.24103  0.41792  0.65697
E39   E   0.24103  0.58208  0.84303
E40   E   0.25000  0.28299  0.50000
E41   E   0.25000  0.46701  0.50000
E42   E   0.25000  0.53299  0.00000
E43   E   0.25000  0.71701  0.00000
E44   E   0.25897  0.41792  0.34303
E45   E   0.25897  0.58208  0.15697
E46   E   0.26341  0.33432  0.42219
E47   E   0.26341  0.66568  0.07781
E48   E   0.28299  0.50000  0.25000
E49   E   0.31044  0.37500  0.56044
E50   E   0.31044  0.62500  0.93956
E51   E   0.32781  0.41568  0.48659
E52   E   0.32781  0.58432  0.01341
E53   E   0.33208  0.49103  0.40697
E54   E   0.33208  0.50897  0.09303
E55   E   0.33432  0.42219  0.26341
E56   E   0.33432  0.57781  0.23659
E57   E   0.34303  0.25897  0.41792
E58   E   0.34303  0.74103  0.08208
E59   E   0.37500  0.43956  0.18956
E60   E   0.37500  0.43956  0.18956
E61   E   0.37500  0.56044  0.31044
E62   E   0.40697  0.33208  0.49103
E63   E   0.40697  0.66792  0.00897
E64   E   0.41568  0.48659  0.32781
E65   E   0.41568  0.51341  0.17219
E66   E   0.41792  0.34303  0.25897
E67   E   0.41792  0.65697  0.24103
E68   E   0.42219  0.26341  0.33432
E69   E   0.42219  0.73659  0.16568
E70   E   0.43956  0.18956  0.37500
E71   E   0.43956  0.18956  0.37500
E72   E   0.43956  0.81044  0.12500
E73   E   0.46701  0.50000  0.25000
E74   E   0.48659  0.32781  0.41568
E75   E   0.48659  0.67219  0.08432
E76   E   0.49103  0.40697  0.33208
E77   E   0.49103  0.59303  0.16792
E78   E   0.50000  0.25000  0.28299
E79   E   0.50000  0.25000  0.46701
E80   E   0.50000  0.75000  0.03299
E81   E   0.50000  0.75000  0.21701
E82   E   0.50897  0.09303  0.33208
E83   E   0.50897  0.90697  0.16792
E84   E   0.51341  0.17219  0.41568
E85   E   0.51341  0.82781  0.08432
E86   E   0.53299  0.00000  0.25000
E87   E   0.56044  0.31044  0.37500
E88   E   0.56044  0.68956  0.12500
E89   E   0.57781  0.23659  0.33432
E90   E   0.57781  0.76341  0.16568
E91   E   0.58208  0.15697  0.25897
E92   E   0.58208  0.84303  0.24103
E93   E   0.58432  0.01341  0.32781
E94   E   0.58432  0.98659  0.17219
E95   E   0.59303  0.16792  0.49103
E96   E   0.59303  0.83208  0.00897
E97   E   0.62500  0.06044  0.18956
E98   E   0.62500  0.06044  0.18956
E99   E   0.62500  0.93956  0.31044
E100  E   0.65697  0.24103  0.41792
E101  E   0.65697  0.75897  0.08208
E102  E   0.66568  0.07781  0.26341
E103  E   0.66568  0.92219  0.23659
E104  E   0.66792  0.00897  0.40697
E105  E   0.66792  0.99103  0.09303
E106  E   0.67219  0.08432  0.48659
E107  E   0.67219  0.91568  0.01341
E108  E   0.68956  0.12500  0.56044
E109  E   0.68956  0.87500  0.93956
E110  E   0.71701  0.00000  0.25000
E111  E   0.73659  0.16568  0.42219
E112  E   0.73659  0.83432  0.07781
E113  E   0.74103  0.08208  0.34303
E114  E   0.74103  0.91792  0.15697
E115  E   0.75000  0.03299  0.50000
E116  E   0.75000  0.21701  0.50000
E117  E   0.75000  0.78299  0.00000
E118  E   0.75000  0.96701  0.00000
E119  E   0.75897  0.08208  0.65697
E120  E   0.75897  0.91792  0.84303
E121  E   0.76341  0.16568  0.57781
E122  E   0.76341  0.83432  0.92219
E123  E   0.78299  0.00000  0.75000
E124  E   0.81044  0.12500  0.43956
E125  E   0.81044  0.87500  0.06044
E126  E   0.82781  0.08432  0.51341
E127  E   0.82781  0.91568  0.98659
E128  E   0.83208  0.00897  0.59303
E129  E   0.83208  0.99103  0.90697
E130  E   0.83432  0.07781  0.73659
E131  E   0.83432  0.92219  0.76341
E132  E   0.84303  0.24103  0.58208
E133  E   0.84303  0.75897  0.91792
E134  E   0.87500  0.06044  0.81044
E135  E   0.87500  0.93956  0.68956
E136  E   0.90697  0.16792  0.50897
E137  E   0.90697  0.83208  0.99103
E138  E   0.91568  0.01341  0.67219
E139  E   0.91568  0.98659  0.82781
E140  E   0.91792  0.15697  0.74103
E141  E   0.91792  0.84303  0.75897
E142  E   0.92219  0.23659  0.66568
E143  E   0.92219  0.76341  0.83432
E144  E   0.93956  0.31044  0.62500
E145  E   0.93956  0.68956  0.87500
E146  E   0.96701  0.00000  0.75000
E147  E   0.98659  0.17219  0.58432
E148  E   0.98659  0.82781  0.91568
E149  E   0.99103  0.09303  0.66792
E150  E   0.99103  0.90697  0.83208
loop_
