data_sku_Im-3  hall_number: 500, V_con: 6, EC_con: 4
_audit_creation_date              2025-03-06
_audit_creation_method            'MOFbuilder_1.0'
_symmetry_space_group_name_H-M    'P1'
_symmetry_Int_Tables_number       1
_symmetry_cell_setting            triclinic
loop_
_symmetry_equiv_pos_as_xyz
  x,y,z
_cell_length_a                    34.4152
_cell_length_b                    34.4152
_cell_length_c                    34.4152
_cell_angle_alpha                 90.0
_cell_angle_beta                  90.0
_cell_angle_gamma                 90.0
loop_
_atom_site_label
_atom_site_type_symbol
_atom_site_fract_x
_atom_site_fract_y
_atom_site_fract_z
V1    V   0.25000  0.25000  0.25000
V2    V   0.25000  0.25000  0.75000
V3    V   0.25000  0.75000  0.25000
V4    V   0.25000  0.75000  0.75000
V5    V   0.75000  0.25000  0.25000
V6    V   0.75000  0.25000  0.75000
V7    V   0.75000  0.75000  0.25000
V8    V   0.75000  0.75000  0.75000
EC1    EC   0.00000  0.35472  0.14528
EC2    EC   0.00000  0.35472  0.85472
EC3    EC   0.00000  0.64528  0.14528
EC4    EC   0.00000  0.64528  0.85472
EC5    EC   0.14528  0.00000  0.35472
EC6    EC   0.14528  0.00000  0.64528
EC7    EC   0.14528  0.35472  0.50000
EC8    EC   0.14528  0.64528  0.50000
EC9    EC   0.35472  0.14528  0.00000
EC10   EC   0.35472  0.85472  0.00000
EC11   EC   0.35472  0.50000  0.14528
EC12   EC   0.35472  0.50000  0.85472
EC13   EC   0.50000  0.14528  0.35472
EC14   EC   0.50000  0.14528  0.64528
EC15   EC   0.50000  0.85472  0.35472
EC16   EC   0.50000  0.85472  0.64528
EC17   EC   0.64528  0.50000  0.14528
EC18   EC   0.64528  0.50000  0.85472
EC19   EC   0.64528  0.14528  0.00000
EC20   EC   0.64528  0.85472  0.00000
EC21   EC   0.85472  0.35472  0.50000
EC22   EC   0.85472  0.64528  0.50000
EC23   EC   0.85472  0.00000  0.35472
EC24   EC   0.85472  0.00000  0.64528
E1    E   0.00000  0.00000  0.35472
E2    E   0.00000  0.00000  0.64528
E3    E   0.00000  0.35472  0.00000
E4    E   0.00000  0.35472  0.50000
E5    E   0.00000  0.50000  0.14528
E6    E   0.00000  0.50000  0.85472
E7    E   0.00000  0.64528  0.50000
E8    E   0.00000  0.64528  0.00000
E9    E   0.12500  0.30236  0.19764
E10   E   0.12500  0.30236  0.80236
E11   E   0.12500  0.69764  0.19764
E12   E   0.12500  0.69764  0.80236
E13   E   0.14528  0.00000  0.50000
E14   E   0.14528  0.50000  0.50000
E15   E   0.19764  0.30236  0.37500
E16   E   0.19764  0.30236  0.62500
E17   E   0.19764  0.69764  0.37500
E18   E   0.19764  0.69764  0.62500
E19   E   0.19764  0.12500  0.30236
E20   E   0.19764  0.12500  0.69764
E21   E   0.19764  0.87500  0.30236
E22   E   0.19764  0.87500  0.69764
E23   E   0.30236  0.37500  0.19764
E24   E   0.30236  0.37500  0.80236
E25   E   0.30236  0.62500  0.19764
E26   E   0.30236  0.62500  0.80236
E27   E   0.30236  0.19764  0.12500
E28   E   0.30236  0.19764  0.87500
E29   E   0.30236  0.80236  0.12500
E30   E   0.30236  0.80236  0.87500
E31   E   0.35472  0.00000  0.00000
E32   E   0.35472  0.50000  0.00000
E33   E   0.37500  0.19764  0.30236
E34   E   0.37500  0.19764  0.69764
E35   E   0.37500  0.80236  0.30236
E36   E   0.37500  0.80236  0.69764
E37   E   0.50000  0.00000  0.35472
E38   E   0.50000  0.00000  0.64528
E39   E   0.50000  0.14528  0.00000
E40   E   0.50000  0.14528  0.50000
E41   E   0.50000  0.50000  0.14528
E42   E   0.50000  0.50000  0.85472
E43   E   0.50000  0.85472  0.50000
E44   E   0.50000  0.85472  0.00000
E45   E   0.62500  0.19764  0.30236
E46   E   0.62500  0.19764  0.69764
E47   E   0.62500  0.80236  0.30236
E48   E   0.62500  0.80236  0.69764
E49   E   0.64528  0.50000  0.00000
E50   E   0.64528  0.00000  0.00000
E51   E   0.69764  0.19764  0.12500
E52   E   0.69764  0.19764  0.87500
E53   E   0.69764  0.37500  0.19764
E54   E   0.69764  0.37500  0.80236
E55   E   0.69764  0.62500  0.19764
E56   E   0.69764  0.62500  0.80236
E57   E   0.69764  0.80236  0.12500
E58   E   0.69764  0.80236  0.87500
E59   E   0.80236  0.12500  0.30236
E60   E   0.80236  0.12500  0.69764
E61   E   0.80236  0.30236  0.37500
E62   E   0.80236  0.30236  0.62500
E63   E   0.80236  0.69764  0.37500
E64   E   0.80236  0.69764  0.62500
E65   E   0.80236  0.87500  0.30236
E66   E   0.80236  0.87500  0.69764
E67   E   0.85472  0.50000  0.50000
E68   E   0.85472  0.00000  0.50000
E69   E   0.87500  0.30236  0.19764
E70   E   0.87500  0.30236  0.80236
E71   E   0.87500  0.69764  0.19764
E72   E   0.87500  0.69764  0.80236
loop_
