data_sky_Pm-3n  hall_number: 520, V_con: 12, EC_con: 3
_audit_creation_date              2025-03-06
_audit_creation_method            'MOFbuilder_1.0'
_symmetry_space_group_name_H-M    'P1'
_symmetry_Int_Tables_number       1
_symmetry_cell_setting            triclinic
loop_
_symmetry_equiv_pos_as_xyz
  x,y,z
_cell_length_a                    29.8143
_cell_length_b                    29.8143
_cell_length_c                    29.8143
_cell_angle_alpha                 90.0
_cell_angle_beta                  90.0
_cell_angle_gamma                 90.0
loop_
_atom_site_label
_atom_site_type_symbol
_atom_site_fract_x
_atom_site_fract_y
_atom_site_fract_z
V1    V   0.00000  0.25000  0.50000
V2    V   0.00000  0.75000  0.50000
V3    V   0.25000  0.50000  0.00000
V4    V   0.50000  0.00000  0.25000
V5    V   0.50000  0.00000  0.75000
V6    V   0.75000  0.50000  0.00000
EC1    EC   0.00000  0.40019  0.20009
EC2    EC   0.00000  0.40019  0.79991
EC3    EC   0.00000  0.59981  0.20009
EC4    EC   0.00000  0.59981  0.79991
EC5    EC   0.09981  0.50000  0.29991
EC6    EC   0.09981  0.50000  0.70009
EC7    EC   0.20009  0.00000  0.40019
EC8    EC   0.20009  0.00000  0.59981
EC9    EC   0.29991  0.09981  0.50000
EC10   EC   0.29991  0.90019  0.50000
EC11   EC   0.40019  0.20009  0.00000
EC12   EC   0.40019  0.79991  0.00000
EC13   EC   0.50000  0.29991  0.09981
EC14   EC   0.50000  0.29991  0.90019
EC15   EC   0.50000  0.70009  0.09981
EC16   EC   0.50000  0.70009  0.90019
EC17   EC   0.59981  0.20009  0.00000
EC18   EC   0.59981  0.79991  0.00000
EC19   EC   0.70009  0.09981  0.50000
EC20   EC   0.70009  0.90019  0.50000
EC21   EC   0.79991  0.00000  0.40019
EC22   EC   0.79991  0.00000  0.59981
EC23   EC   0.90019  0.50000  0.29991
EC24   EC   0.90019  0.50000  0.70009
E1    E   0.00000  0.32510  0.35004
E2    E   0.00000  0.32510  0.64996
E3    E   0.00000  0.67490  0.35004
E4    E   0.00000  0.67490  0.64996
E5    E   0.04990  0.37500  0.39996
E6    E   0.04990  0.37500  0.60004
E7    E   0.04990  0.62500  0.39996
E8    E   0.04990  0.62500  0.60004
E9    E   0.10004  0.12500  0.45010
E10   E   0.10004  0.12500  0.54990
E11   E   0.10004  0.87500  0.45010
E12   E   0.10004  0.87500  0.54990
E13   E   0.12500  0.45010  0.10004
E14   E   0.12500  0.45010  0.89996
E15   E   0.12500  0.54990  0.10004
E16   E   0.12500  0.54990  0.89996
E17   E   0.14996  0.17490  0.50000
E18   E   0.14996  0.82510  0.50000
E19   E   0.17490  0.50000  0.14996
E20   E   0.17490  0.50000  0.85004
E21   E   0.32510  0.35004  0.00000
E22   E   0.32510  0.64996  0.00000
E23   E   0.35004  0.00000  0.32510
E24   E   0.35004  0.00000  0.67490
E25   E   0.37500  0.39996  0.04990
E26   E   0.37500  0.39996  0.95010
E27   E   0.37500  0.60004  0.04990
E28   E   0.37500  0.60004  0.95010
E29   E   0.39996  0.04990  0.37500
E30   E   0.39996  0.04990  0.62500
E31   E   0.39996  0.95010  0.37500
E32   E   0.39996  0.95010  0.62500
E33   E   0.45010  0.10004  0.12500
E34   E   0.45010  0.10004  0.87500
E35   E   0.45010  0.89996  0.12500
E36   E   0.45010  0.89996  0.87500
E37   E   0.50000  0.14996  0.17490
E38   E   0.50000  0.14996  0.82510
E39   E   0.50000  0.85004  0.17490
E40   E   0.50000  0.85004  0.82510
E41   E   0.54990  0.10004  0.12500
E42   E   0.54990  0.10004  0.87500
E43   E   0.54990  0.89996  0.12500
E44   E   0.54990  0.89996  0.87500
E45   E   0.60004  0.04990  0.37500
E46   E   0.60004  0.04990  0.62500
E47   E   0.60004  0.95010  0.37500
E48   E   0.60004  0.95010  0.62500
E49   E   0.62500  0.39996  0.04990
E50   E   0.62500  0.39996  0.95010
E51   E   0.62500  0.60004  0.04990
E52   E   0.62500  0.60004  0.95010
E53   E   0.64996  0.00000  0.32510
E54   E   0.64996  0.00000  0.67490
E55   E   0.67490  0.35004  0.00000
E56   E   0.67490  0.64996  0.00000
E57   E   0.82510  0.50000  0.14996
E58   E   0.82510  0.50000  0.85004
E59   E   0.85004  0.17490  0.50000
E60   E   0.85004  0.82510  0.50000
E61   E   0.87500  0.45010  0.10004
E62   E   0.87500  0.45010  0.89996
E63   E   0.87500  0.54990  0.10004
E64   E   0.87500  0.54990  0.89996
E65   E   0.89996  0.12500  0.45010
E66   E   0.89996  0.12500  0.54990
E67   E   0.89996  0.87500  0.45010
E68   E   0.89996  0.87500  0.54990
E69   E   0.95010  0.37500  0.39996
E70   E   0.95010  0.37500  0.60004
E71   E   0.95010  0.62500  0.39996
E72   E   0.95010  0.62500  0.60004
loop_
