data_smq_Pm-3n  hall_number: 520, V_con: 6
_audit_creation_date              2025-03-06
_audit_creation_method            'MOFbuilder_1.0'
_symmetry_space_group_name_H-M    'P1'
_symmetry_Int_Tables_number       1
_symmetry_cell_setting            triclinic
loop_
_symmetry_equiv_pos_as_xyz
  x,y,z
_cell_length_a                    29.2436
_cell_length_b                    29.2436
_cell_length_c                    29.2436
_cell_angle_alpha                 90.0
_cell_angle_beta                  90.0
_cell_angle_gamma                 90.0
loop_
_atom_site_label
_atom_site_type_symbol
_atom_site_fract_x
_atom_site_fract_y
_atom_site_fract_z
V1    V   0.00000  0.20237  0.26777
V2    V   0.00000  0.20237  0.73223
V3    V   0.00000  0.79763  0.26777
V4    V   0.00000  0.79763  0.73223
V5    V   0.20237  0.26777  0.00000
V6    V   0.20237  0.73223  0.00000
V7    V   0.23223  0.29763  0.50000
V8    V   0.23223  0.70237  0.50000
V9    V   0.26777  0.00000  0.20237
V10   V   0.26777  0.00000  0.79763
V11   V   0.29763  0.50000  0.23223
V12   V   0.29763  0.50000  0.76777
V13   V   0.50000  0.23223  0.29763
V14   V   0.50000  0.23223  0.70237
V15   V   0.50000  0.76777  0.29763
V16   V   0.50000  0.76777  0.70237
V17   V   0.70237  0.50000  0.23223
V18   V   0.70237  0.50000  0.76777
V19   V   0.73223  0.00000  0.20237
V20   V   0.73223  0.00000  0.79763
V21   V   0.76777  0.29763  0.50000
V22   V   0.76777  0.70237  0.50000
V23   V   0.79763  0.26777  0.00000
V24   V   0.79763  0.73223  0.00000
E1    E   0.10118  0.23507  0.13389
E2    E   0.10118  0.23507  0.86611
E3    E   0.10118  0.76493  0.13389
E4    E   0.10118  0.76493  0.86611
E5    E   0.11611  0.25000  0.38389
E6    E   0.11611  0.25000  0.61611
E7    E   0.11611  0.75000  0.38389
E8    E   0.11611  0.75000  0.61611
E9    E   0.11611  0.25000  0.38389
E10   E   0.11611  0.25000  0.61611
E11   E   0.11611  0.75000  0.38389
E12   E   0.11611  0.75000  0.61611
E13   E   0.13389  0.10118  0.23507
E14   E   0.13389  0.10118  0.76493
E15   E   0.13389  0.89882  0.23507
E16   E   0.13389  0.89882  0.76493
E17   E   0.23507  0.13389  0.10118
E18   E   0.23507  0.13389  0.89882
E19   E   0.23507  0.86611  0.10118
E20   E   0.23507  0.86611  0.89882
E21   E   0.25000  0.38389  0.11611
E22   E   0.25000  0.38389  0.11611
E23   E   0.25000  0.38389  0.88389
E24   E   0.25000  0.38389  0.88389
E25   E   0.25000  0.61611  0.11611
E26   E   0.25000  0.61611  0.88389
E27   E   0.25000  0.61611  0.11611
E28   E   0.25000  0.61611  0.88389
E29   E   0.26493  0.39882  0.36611
E30   E   0.26493  0.39882  0.63389
E31   E   0.26493  0.60118  0.36611
E32   E   0.26493  0.60118  0.63389
E33   E   0.36611  0.26493  0.39882
E34   E   0.36611  0.26493  0.60118
E35   E   0.36611  0.73507  0.39882
E36   E   0.36611  0.73507  0.60118
E37   E   0.38389  0.11611  0.25000
E38   E   0.38389  0.11611  0.75000
E39   E   0.38389  0.11611  0.25000
E40   E   0.38389  0.11611  0.75000
E41   E   0.38389  0.88389  0.25000
E42   E   0.38389  0.88389  0.75000
E43   E   0.38389  0.88389  0.25000
E44   E   0.38389  0.88389  0.75000
E45   E   0.39882  0.36611  0.26493
E46   E   0.39882  0.36611  0.73507
E47   E   0.39882  0.63389  0.26493
E48   E   0.39882  0.63389  0.73507
E49   E   0.60118  0.36611  0.26493
E50   E   0.60118  0.36611  0.73507
E51   E   0.60118  0.63389  0.26493
E52   E   0.60118  0.63389  0.73507
E53   E   0.61611  0.11611  0.25000
E54   E   0.61611  0.11611  0.75000
E55   E   0.61611  0.88389  0.25000
E56   E   0.61611  0.88389  0.75000
E57   E   0.61611  0.11611  0.25000
E58   E   0.61611  0.11611  0.75000
E59   E   0.61611  0.88389  0.25000
E60   E   0.61611  0.88389  0.75000
E61   E   0.63389  0.26493  0.39882
E62   E   0.63389  0.26493  0.60118
E63   E   0.63389  0.73507  0.39882
E64   E   0.63389  0.73507  0.60118
E65   E   0.73507  0.39882  0.36611
E66   E   0.73507  0.39882  0.63389
E67   E   0.73507  0.60118  0.36611
E68   E   0.73507  0.60118  0.63389
E69   E   0.75000  0.38389  0.11611
E70   E   0.75000  0.38389  0.11611
E71   E   0.75000  0.38389  0.88389
E72   E   0.75000  0.38389  0.88389
E73   E   0.75000  0.61611  0.11611
E74   E   0.75000  0.61611  0.88389
E75   E   0.75000  0.61611  0.11611
E76   E   0.75000  0.61611  0.88389
E77   E   0.76493  0.13389  0.10118
E78   E   0.76493  0.13389  0.89882
E79   E   0.76493  0.86611  0.10118
E80   E   0.76493  0.86611  0.89882
E81   E   0.86611  0.10118  0.23507
E82   E   0.86611  0.10118  0.76493
E83   E   0.86611  0.89882  0.23507
E84   E   0.86611  0.89882  0.76493
E85   E   0.88389  0.25000  0.38389
E86   E   0.88389  0.25000  0.61611
E87   E   0.88389  0.75000  0.38389
E88   E   0.88389  0.75000  0.61611
E89   E   0.88389  0.25000  0.38389
E90   E   0.88389  0.25000  0.61611
E91   E   0.88389  0.75000  0.38389
E92   E   0.88389  0.75000  0.61611
E93   E   0.89882  0.23507  0.13389
E94   E   0.89882  0.23507  0.86611
E95   E   0.89882  0.76493  0.13389
E96   E   0.89882  0.76493  0.86611
loop_
