data_sng_Fm-3  hall_number: 497, V_con: 6
_audit_creation_date              2025-03-06
_audit_creation_method            'MOFbuilder_1.0'
_symmetry_space_group_name_H-M    'P1'
_symmetry_Int_Tables_number       1
_symmetry_cell_setting            triclinic
loop_
_symmetry_equiv_pos_as_xyz
  x,y,z
_cell_length_a                    38.9007
_cell_length_b                    38.9007
_cell_length_c                    38.9007
_cell_angle_alpha                 90.0
_cell_angle_beta                  90.0
_cell_angle_gamma                 90.0
loop_
_atom_site_label
_atom_site_type_symbol
_atom_site_fract_x
_atom_site_fract_y
_atom_site_fract_z
V1    V   0.00000  0.12853  0.29203
V2    V   0.00000  0.12853  0.70797
V3    V   0.00000  0.37147  0.20797
V4    V   0.00000  0.37147  0.79203
V5    V   0.00000  0.62853  0.20797
V6    V   0.00000  0.62853  0.79203
V7    V   0.00000  0.87147  0.29203
V8    V   0.00000  0.87147  0.70797
V9    V   0.12853  0.20797  0.50000
V10   V   0.12853  0.29203  0.00000
V11   V   0.12853  0.70797  0.00000
V12   V   0.12853  0.79203  0.50000
V13   V   0.20797  0.00000  0.37147
V14   V   0.20797  0.00000  0.62853
V15   V   0.20797  0.50000  0.12853
V16   V   0.20797  0.50000  0.87147
V17   V   0.29203  0.00000  0.12853
V18   V   0.29203  0.00000  0.87147
V19   V   0.29203  0.50000  0.37147
V20   V   0.29203  0.50000  0.62853
V21   V   0.37147  0.20797  0.00000
V22   V   0.37147  0.29203  0.50000
V23   V   0.37147  0.70797  0.50000
V24   V   0.37147  0.79203  0.00000
V25   V   0.50000  0.12853  0.20797
V26   V   0.50000  0.12853  0.79203
V27   V   0.50000  0.37147  0.29203
V28   V   0.50000  0.37147  0.70797
V29   V   0.50000  0.62853  0.29203
V30   V   0.50000  0.62853  0.70797
V31   V   0.50000  0.87147  0.20797
V32   V   0.50000  0.87147  0.79203
V33   V   0.62853  0.20797  0.00000
V34   V   0.62853  0.29203  0.50000
V35   V   0.62853  0.70797  0.50000
V36   V   0.62853  0.79203  0.00000
V37   V   0.70797  0.00000  0.12853
V38   V   0.70797  0.00000  0.87147
V39   V   0.70797  0.50000  0.37147
V40   V   0.70797  0.50000  0.62853
V41   V   0.79203  0.00000  0.37147
V42   V   0.79203  0.00000  0.62853
V43   V   0.79203  0.50000  0.12853
V44   V   0.79203  0.50000  0.87147
V45   V   0.87147  0.20797  0.50000
V46   V   0.87147  0.29203  0.00000
V47   V   0.87147  0.70797  0.00000
V48   V   0.87147  0.79203  0.50000
E1    E   0.00000  0.00000  0.29203
E2    E   0.00000  0.00000  0.70797
E3    E   0.00000  0.20797  0.50000
E4    E   0.00000  0.25000  0.25000
E5    E   0.00000  0.25000  0.75000
E6    E   0.00000  0.29203  0.00000
E7    E   0.00000  0.50000  0.20797
E8    E   0.00000  0.50000  0.79203
E9    E   0.00000  0.70797  0.00000
E10   E   0.00000  0.75000  0.25000
E11   E   0.00000  0.75000  0.75000
E12   E   0.00000  0.79203  0.50000
E13   E   0.06427  0.16825  0.39602
E14   E   0.06427  0.16825  0.60398
E15   E   0.06427  0.33175  0.10398
E16   E   0.06427  0.33175  0.89602
E17   E   0.06427  0.66825  0.10398
E18   E   0.06427  0.66825  0.89602
E19   E   0.06427  0.83175  0.39602
E20   E   0.06427  0.83175  0.60398
E21   E   0.10398  0.06427  0.33175
E22   E   0.10398  0.06427  0.66825
E23   E   0.10398  0.43573  0.16825
E24   E   0.10398  0.43573  0.83175
E25   E   0.10398  0.56427  0.16825
E26   E   0.10398  0.56427  0.83175
E27   E   0.10398  0.93573  0.33175
E28   E   0.10398  0.93573  0.66825
E29   E   0.16825  0.10398  0.43573
E30   E   0.16825  0.10398  0.56427
E31   E   0.16825  0.39602  0.06427
E32   E   0.16825  0.39602  0.93573
E33   E   0.16825  0.60398  0.06427
E34   E   0.16825  0.60398  0.93573
E35   E   0.16825  0.89602  0.43573
E36   E   0.16825  0.89602  0.56427
E37   E   0.20797  0.00000  0.50000
E38   E   0.20797  0.50000  0.00000
E39   E   0.25000  0.00000  0.25000
E40   E   0.25000  0.00000  0.75000
E41   E   0.25000  0.25000  0.00000
E42   E   0.25000  0.25000  0.50000
E43   E   0.25000  0.50000  0.25000
E44   E   0.25000  0.50000  0.75000
E45   E   0.25000  0.75000  0.00000
E46   E   0.25000  0.75000  0.50000
E47   E   0.29203  0.00000  0.00000
E48   E   0.29203  0.50000  0.50000
E49   E   0.33175  0.10398  0.06427
E50   E   0.33175  0.10398  0.93573
E51   E   0.33175  0.39602  0.43573
E52   E   0.33175  0.39602  0.56427
E53   E   0.33175  0.60398  0.43573
E54   E   0.33175  0.60398  0.56427
E55   E   0.33175  0.89602  0.06427
E56   E   0.33175  0.89602  0.93573
E57   E   0.39602  0.06427  0.16825
E58   E   0.39602  0.06427  0.83175
E59   E   0.39602  0.43573  0.33175
E60   E   0.39602  0.43573  0.66825
E61   E   0.39602  0.56427  0.33175
E62   E   0.39602  0.56427  0.66825
E63   E   0.39602  0.93573  0.16825
E64   E   0.39602  0.93573  0.83175
E65   E   0.43573  0.16825  0.10398
E66   E   0.43573  0.16825  0.89602
E67   E   0.43573  0.33175  0.39602
E68   E   0.43573  0.33175  0.60398
E69   E   0.43573  0.66825  0.39602
E70   E   0.43573  0.66825  0.60398
E71   E   0.43573  0.83175  0.10398
E72   E   0.43573  0.83175  0.89602
E73   E   0.50000  0.00000  0.20797
E74   E   0.50000  0.00000  0.79203
E75   E   0.50000  0.20797  0.00000
E76   E   0.50000  0.25000  0.25000
E77   E   0.50000  0.25000  0.75000
E78   E   0.50000  0.29203  0.50000
E79   E   0.50000  0.50000  0.29203
E80   E   0.50000  0.50000  0.70797
E81   E   0.50000  0.70797  0.50000
E82   E   0.50000  0.75000  0.25000
E83   E   0.50000  0.75000  0.75000
E84   E   0.50000  0.79203  0.00000
E85   E   0.56427  0.16825  0.10398
E86   E   0.56427  0.16825  0.89602
E87   E   0.56427  0.33175  0.39602
E88   E   0.56427  0.33175  0.60398
E89   E   0.56427  0.66825  0.39602
E90   E   0.56427  0.66825  0.60398
E91   E   0.56427  0.83175  0.10398
E92   E   0.56427  0.83175  0.89602
E93   E   0.60398  0.06427  0.16825
E94   E   0.60398  0.06427  0.83175
E95   E   0.60398  0.43573  0.33175
E96   E   0.60398  0.43573  0.66825
E97   E   0.60398  0.56427  0.33175
E98   E   0.60398  0.56427  0.66825
E99   E   0.60398  0.93573  0.16825
E100  E   0.60398  0.93573  0.83175
E101  E   0.66825  0.10398  0.06427
E102  E   0.66825  0.10398  0.93573
E103  E   0.66825  0.39602  0.43573
E104  E   0.66825  0.39602  0.56427
E105  E   0.66825  0.60398  0.43573
E106  E   0.66825  0.60398  0.56427
E107  E   0.66825  0.89602  0.06427
E108  E   0.66825  0.89602  0.93573
E109  E   0.70797  0.00000  0.00000
E110  E   0.70797  0.50000  0.50000
E111  E   0.75000  0.00000  0.25000
E112  E   0.75000  0.00000  0.75000
E113  E   0.75000  0.25000  0.00000
E114  E   0.75000  0.25000  0.50000
E115  E   0.75000  0.50000  0.25000
E116  E   0.75000  0.50000  0.75000
E117  E   0.75000  0.75000  0.00000
E118  E   0.75000  0.75000  0.50000
E119  E   0.79203  0.00000  0.50000
E120  E   0.79203  0.50000  0.00000
E121  E   0.83175  0.10398  0.43573
E122  E   0.83175  0.10398  0.56427
E123  E   0.83175  0.39602  0.06427
E124  E   0.83175  0.39602  0.93573
E125  E   0.83175  0.60398  0.06427
E126  E   0.83175  0.60398  0.93573
E127  E   0.83175  0.89602  0.43573
E128  E   0.83175  0.89602  0.56427
E129  E   0.89602  0.06427  0.33175
E130  E   0.89602  0.06427  0.66825
E131  E   0.89602  0.43573  0.16825
E132  E   0.89602  0.43573  0.83175
E133  E   0.89602  0.56427  0.16825
E134  E   0.89602  0.56427  0.83175
E135  E   0.89602  0.93573  0.33175
E136  E   0.89602  0.93573  0.66825
E137  E   0.93573  0.16825  0.39602
E138  E   0.93573  0.16825  0.60398
E139  E   0.93573  0.33175  0.10398
E140  E   0.93573  0.33175  0.89602
E141  E   0.93573  0.66825  0.10398
E142  E   0.93573  0.66825  0.89602
E143  E   0.93573  0.83175  0.39602
E144  E   0.93573  0.83175  0.60398
loop_
