data_soc-a_Im-3m  hall_number: 529, V_con: 5, EC_con: 3
_audit_creation_date              2025-03-06
_audit_creation_method            'MOFbuilder_1.0'
_symmetry_space_group_name_H-M    'P1'
_symmetry_Int_Tables_number       1
_symmetry_cell_setting            triclinic
loop_
_symmetry_equiv_pos_as_xyz
  x,y,z
_cell_length_a                    67.14
_cell_length_b                    67.14
_cell_length_c                    67.14
_cell_angle_alpha                 90.0
_cell_angle_beta                  90.0
_cell_angle_gamma                 90.0
loop_
_atom_site_label
_atom_site_type_symbol
_atom_site_fract_x
_atom_site_fract_y
_atom_site_fract_z
V1    V   0.17979  0.17979  0.28511
V2    V   0.17979  0.17979  0.71489
V3    V   0.17979  0.28511  0.17979
V4    V   0.17979  0.28511  0.82021
V5    V   0.17979  0.71489  0.17979
V6    V   0.17979  0.71489  0.82021
V7    V   0.17979  0.82021  0.28511
V8    V   0.17979  0.82021  0.71489
V9    V   0.21489  0.32021  0.32021
V10   V   0.21489  0.32021  0.67979
V11   V   0.21489  0.67979  0.32021
V12   V   0.21489  0.67979  0.67979
V13   V   0.28511  0.17979  0.17979
V14   V   0.28511  0.17979  0.82021
V15   V   0.28511  0.82021  0.17979
V16   V   0.28511  0.82021  0.82021
V17   V   0.32021  0.21489  0.32021
V18   V   0.32021  0.21489  0.67979
V19   V   0.32021  0.32021  0.21489
V20   V   0.32021  0.32021  0.78511
V21   V   0.32021  0.67979  0.21489
V22   V   0.32021  0.67979  0.78511
V23   V   0.32021  0.78511  0.32021
V24   V   0.32021  0.78511  0.67979
V25   V   0.67979  0.21489  0.32021
V26   V   0.67979  0.21489  0.67979
V27   V   0.67979  0.32021  0.21489
V28   V   0.67979  0.32021  0.78511
V29   V   0.67979  0.67979  0.21489
V30   V   0.67979  0.67979  0.78511
V31   V   0.67979  0.78511  0.32021
V32   V   0.67979  0.78511  0.67979
V33   V   0.71489  0.17979  0.17979
V34   V   0.71489  0.17979  0.82021
V35   V   0.71489  0.82021  0.17979
V36   V   0.71489  0.82021  0.82021
V37   V   0.78511  0.32021  0.32021
V38   V   0.78511  0.32021  0.67979
V39   V   0.78511  0.67979  0.32021
V40   V   0.78511  0.67979  0.67979
V41   V   0.82021  0.17979  0.28511
V42   V   0.82021  0.17979  0.71489
V43   V   0.82021  0.28511  0.17979
V44   V   0.82021  0.28511  0.82021
V45   V   0.82021  0.71489  0.17979
V46   V   0.82021  0.71489  0.82021
V47   V   0.82021  0.82021  0.28511
V48   V   0.82021  0.82021  0.71489
EC1    EC   0.07447  0.07447  0.28428
EC2    EC   0.07447  0.07447  0.71572
EC3    EC   0.07447  0.28428  0.07447
EC4    EC   0.07447  0.28428  0.92553
EC5    EC   0.07447  0.71572  0.07447
EC6    EC   0.07447  0.71572  0.92553
EC7    EC   0.07447  0.92553  0.28428
EC8    EC   0.07447  0.92553  0.71572
EC9    EC   0.21572  0.42553  0.42553
EC10   EC   0.21572  0.42553  0.57447
EC11   EC   0.21572  0.57447  0.42553
EC12   EC   0.21572  0.57447  0.57447
EC13   EC   0.28428  0.07447  0.07447
EC14   EC   0.28428  0.07447  0.92553
EC15   EC   0.28428  0.92553  0.07447
EC16   EC   0.28428  0.92553  0.92553
EC17   EC   0.42553  0.21572  0.42553
EC18   EC   0.42553  0.21572  0.57447
EC19   EC   0.42553  0.42553  0.21572
EC20   EC   0.42553  0.42553  0.78428
EC21   EC   0.42553  0.57447  0.21572
EC22   EC   0.42553  0.57447  0.78428
EC23   EC   0.42553  0.78428  0.42553
EC24   EC   0.42553  0.78428  0.57447
EC25   EC   0.57447  0.21572  0.42553
EC26   EC   0.57447  0.21572  0.57447
EC27   EC   0.57447  0.42553  0.21572
EC28   EC   0.57447  0.42553  0.78428
EC29   EC   0.57447  0.57447  0.21572
EC30   EC   0.57447  0.57447  0.78428
EC31   EC   0.57447  0.78428  0.42553
EC32   EC   0.57447  0.78428  0.57447
EC33   EC   0.71572  0.07447  0.07447
EC34   EC   0.71572  0.07447  0.92553
EC35   EC   0.71572  0.92553  0.07447
EC36   EC   0.71572  0.92553  0.92553
EC37   EC   0.78428  0.42553  0.42553
EC38   EC   0.78428  0.42553  0.57447
EC39   EC   0.78428  0.57447  0.42553
EC40   EC   0.78428  0.57447  0.57447
EC41   EC   0.92553  0.07447  0.28428
EC42   EC   0.92553  0.07447  0.71572
EC43   EC   0.92553  0.28428  0.07447
EC44   EC   0.92553  0.28428  0.92553
EC45   EC   0.92553  0.71572  0.07447
EC46   EC   0.92553  0.71572  0.92553
EC47   EC   0.92553  0.92553  0.28428
EC48   EC   0.92553  0.92553  0.71572
E1    E   0.00000  0.07447  0.28428
E2    E   0.00000  0.07447  0.71572
E3    E   0.00000  0.28428  0.07447
E4    E   0.00000  0.28428  0.92553
E5    E   0.00000  0.71572  0.07447
E6    E   0.00000  0.71572  0.92553
E7    E   0.00000  0.92553  0.28428
E8    E   0.00000  0.92553  0.71572
E9    E   0.07447  0.00000  0.28428
E10   E   0.07447  0.00000  0.71572
E11   E   0.07447  0.28428  0.00000
E12   E   0.07447  0.71572  0.00000
E13   E   0.12713  0.12713  0.28469
E14   E   0.12713  0.12713  0.71531
E15   E   0.12713  0.28469  0.12713
E16   E   0.12713  0.28469  0.87287
E17   E   0.12713  0.71531  0.12713
E18   E   0.12713  0.71531  0.87287
E19   E   0.12713  0.87287  0.28469
E20   E   0.12713  0.87287  0.71531
E21   E   0.17979  0.23245  0.23245
E22   E   0.17979  0.23245  0.76755
E23   E   0.17979  0.76755  0.23245
E24   E   0.17979  0.76755  0.76755
E25   E   0.19734  0.25000  0.30266
E26   E   0.19734  0.25000  0.69734
E27   E   0.19734  0.30266  0.25000
E28   E   0.19734  0.30266  0.75000
E29   E   0.19734  0.69734  0.25000
E30   E   0.19734  0.69734  0.75000
E31   E   0.19734  0.75000  0.30266
E32   E   0.19734  0.75000  0.69734
E33   E   0.19734  0.25000  0.30266
E34   E   0.19734  0.25000  0.69734
E35   E   0.19734  0.30266  0.25000
E36   E   0.19734  0.30266  0.75000
E37   E   0.19734  0.69734  0.25000
E38   E   0.19734  0.69734  0.75000
E39   E   0.19734  0.75000  0.30266
E40   E   0.19734  0.75000  0.69734
E41   E   0.21531  0.37287  0.37287
E42   E   0.21531  0.37287  0.62713
E43   E   0.21531  0.62713  0.37287
E44   E   0.21531  0.62713  0.62713
E45   E   0.21572  0.42553  0.50000
E46   E   0.21572  0.50000  0.42553
E47   E   0.21572  0.50000  0.57447
E48   E   0.21572  0.57447  0.50000
E49   E   0.23245  0.17979  0.23245
E50   E   0.23245  0.17979  0.76755
E51   E   0.23245  0.23245  0.17979
E52   E   0.23245  0.23245  0.82021
E53   E   0.23245  0.76755  0.17979
E54   E   0.23245  0.76755  0.82021
E55   E   0.23245  0.82021  0.23245
E56   E   0.23245  0.82021  0.76755
E57   E   0.25000  0.19734  0.30266
E58   E   0.25000  0.19734  0.69734
E59   E   0.25000  0.19734  0.30266
E60   E   0.25000  0.19734  0.69734
E61   E   0.25000  0.30266  0.19734
E62   E   0.25000  0.30266  0.80266
E63   E   0.25000  0.30266  0.19734
E64   E   0.25000  0.30266  0.80266
E65   E   0.25000  0.69734  0.19734
E66   E   0.25000  0.69734  0.80266
E67   E   0.25000  0.69734  0.19734
E68   E   0.25000  0.69734  0.80266
E69   E   0.25000  0.80266  0.30266
E70   E   0.25000  0.80266  0.69734
E71   E   0.25000  0.80266  0.30266
E72   E   0.25000  0.80266  0.69734
E73   E   0.26755  0.26755  0.32021
E74   E   0.26755  0.26755  0.67979
E75   E   0.26755  0.32021  0.26755
E76   E   0.26755  0.32021  0.73245
E77   E   0.26755  0.67979  0.26755
E78   E   0.26755  0.67979  0.73245
E79   E   0.26755  0.73245  0.32021
E80   E   0.26755  0.73245  0.67979
E81   E   0.28428  0.00000  0.07447
E82   E   0.28428  0.00000  0.92553
E83   E   0.28428  0.07447  0.00000
E84   E   0.28428  0.92553  0.00000
E85   E   0.28469  0.12713  0.12713
E86   E   0.28469  0.12713  0.87287
E87   E   0.28469  0.87287  0.12713
E88   E   0.28469  0.87287  0.87287
E89   E   0.30266  0.19734  0.25000
E90   E   0.30266  0.19734  0.75000
E91   E   0.30266  0.25000  0.19734
E92   E   0.30266  0.25000  0.80266
E93   E   0.30266  0.75000  0.19734
E94   E   0.30266  0.75000  0.80266
E95   E   0.30266  0.80266  0.25000
E96   E   0.30266  0.80266  0.75000
E97   E   0.30266  0.19734  0.25000
E98   E   0.30266  0.19734  0.75000
E99   E   0.30266  0.25000  0.19734
E100  E   0.30266  0.25000  0.80266
E101  E   0.30266  0.75000  0.19734
E102  E   0.30266  0.75000  0.80266
E103  E   0.30266  0.80266  0.25000
E104  E   0.30266  0.80266  0.75000
E105  E   0.32021  0.26755  0.26755
E106  E   0.32021  0.26755  0.73245
E107  E   0.32021  0.73245  0.26755
E108  E   0.32021  0.73245  0.73245
E109  E   0.37287  0.21531  0.37287
E110  E   0.37287  0.21531  0.62713
E111  E   0.37287  0.37287  0.21531
E112  E   0.37287  0.37287  0.78469
E113  E   0.37287  0.62713  0.21531
E114  E   0.37287  0.62713  0.78469
E115  E   0.37287  0.78469  0.37287
E116  E   0.37287  0.78469  0.62713
E117  E   0.42553  0.21572  0.50000
E118  E   0.42553  0.50000  0.21572
E119  E   0.42553  0.50000  0.78428
E120  E   0.42553  0.78428  0.50000
E121  E   0.50000  0.21572  0.42553
E122  E   0.50000  0.21572  0.57447
E123  E   0.50000  0.42553  0.21572
E124  E   0.50000  0.42553  0.78428
E125  E   0.50000  0.57447  0.21572
E126  E   0.50000  0.57447  0.78428
E127  E   0.50000  0.78428  0.42553
E128  E   0.50000  0.78428  0.57447
E129  E   0.57447  0.21572  0.50000
E130  E   0.57447  0.50000  0.21572
E131  E   0.57447  0.50000  0.78428
E132  E   0.57447  0.78428  0.50000
E133  E   0.62713  0.21531  0.37287
E134  E   0.62713  0.21531  0.62713
E135  E   0.62713  0.37287  0.21531
E136  E   0.62713  0.37287  0.78469
E137  E   0.62713  0.62713  0.21531
E138  E   0.62713  0.62713  0.78469
E139  E   0.62713  0.78469  0.37287
E140  E   0.62713  0.78469  0.62713
E141  E   0.67979  0.26755  0.26755
E142  E   0.67979  0.26755  0.73245
E143  E   0.67979  0.73245  0.26755
E144  E   0.67979  0.73245  0.73245
E145  E   0.69734  0.19734  0.25000
E146  E   0.69734  0.19734  0.75000
E147  E   0.69734  0.25000  0.19734
E148  E   0.69734  0.25000  0.80266
E149  E   0.69734  0.75000  0.19734
E150  E   0.69734  0.75000  0.80266
E151  E   0.69734  0.80266  0.25000
E152  E   0.69734  0.80266  0.75000
E153  E   0.69734  0.19734  0.25000
E154  E   0.69734  0.19734  0.75000
E155  E   0.69734  0.25000  0.19734
E156  E   0.69734  0.25000  0.80266
E157  E   0.69734  0.75000  0.19734
E158  E   0.69734  0.75000  0.80266
E159  E   0.69734  0.80266  0.25000
E160  E   0.69734  0.80266  0.75000
E161  E   0.71531  0.12713  0.12713
E162  E   0.71531  0.12713  0.87287
E163  E   0.71531  0.87287  0.12713
E164  E   0.71531  0.87287  0.87287
E165  E   0.71572  0.00000  0.07447
E166  E   0.71572  0.00000  0.92553
E167  E   0.71572  0.07447  0.00000
E168  E   0.71572  0.92553  0.00000
E169  E   0.73245  0.26755  0.32021
E170  E   0.73245  0.26755  0.67979
E171  E   0.73245  0.32021  0.26755
E172  E   0.73245  0.32021  0.73245
E173  E   0.73245  0.67979  0.26755
E174  E   0.73245  0.67979  0.73245
E175  E   0.73245  0.73245  0.32021
E176  E   0.73245  0.73245  0.67979
E177  E   0.75000  0.19734  0.30266
E178  E   0.75000  0.19734  0.69734
E179  E   0.75000  0.19734  0.30266
E180  E   0.75000  0.19734  0.69734
E181  E   0.75000  0.30266  0.19734
E182  E   0.75000  0.30266  0.80266
E183  E   0.75000  0.30266  0.19734
E184  E   0.75000  0.30266  0.80266
E185  E   0.75000  0.69734  0.19734
E186  E   0.75000  0.69734  0.80266
E187  E   0.75000  0.69734  0.19734
E188  E   0.75000  0.69734  0.80266
E189  E   0.75000  0.80266  0.30266
E190  E   0.75000  0.80266  0.69734
E191  E   0.75000  0.80266  0.30266
E192  E   0.75000  0.80266  0.69734
E193  E   0.76755  0.17979  0.23245
E194  E   0.76755  0.17979  0.76755
E195  E   0.76755  0.23245  0.17979
E196  E   0.76755  0.23245  0.82021
E197  E   0.76755  0.76755  0.17979
E198  E   0.76755  0.76755  0.82021
E199  E   0.76755  0.82021  0.23245
E200  E   0.76755  0.82021  0.76755
E201  E   0.78428  0.42553  0.50000
E202  E   0.78428  0.50000  0.42553
E203  E   0.78428  0.50000  0.57447
E204  E   0.78428  0.57447  0.50000
E205  E   0.78469  0.37287  0.37287
E206  E   0.78469  0.37287  0.62713
E207  E   0.78469  0.62713  0.37287
E208  E   0.78469  0.62713  0.62713
E209  E   0.80266  0.25000  0.30266
E210  E   0.80266  0.25000  0.69734
E211  E   0.80266  0.30266  0.25000
E212  E   0.80266  0.30266  0.75000
E213  E   0.80266  0.69734  0.25000
E214  E   0.80266  0.69734  0.75000
E215  E   0.80266  0.75000  0.30266
E216  E   0.80266  0.75000  0.69734
E217  E   0.80266  0.25000  0.30266
E218  E   0.80266  0.25000  0.69734
E219  E   0.80266  0.30266  0.25000
E220  E   0.80266  0.30266  0.75000
E221  E   0.80266  0.69734  0.25000
E222  E   0.80266  0.69734  0.75000
E223  E   0.80266  0.75000  0.30266
E224  E   0.80266  0.75000  0.69734
E225  E   0.82021  0.23245  0.23245
E226  E   0.82021  0.23245  0.76755
E227  E   0.82021  0.76755  0.23245
E228  E   0.82021  0.76755  0.76755
E229  E   0.87287  0.12713  0.28469
E230  E   0.87287  0.12713  0.71531
E231  E   0.87287  0.28469  0.12713
E232  E   0.87287  0.28469  0.87287
E233  E   0.87287  0.71531  0.12713
E234  E   0.87287  0.71531  0.87287
E235  E   0.87287  0.87287  0.28469
E236  E   0.87287  0.87287  0.71531
E237  E   0.92553  0.00000  0.28428
E238  E   0.92553  0.00000  0.71572
E239  E   0.92553  0.28428  0.00000
E240  E   0.92553  0.71572  0.00000
loop_
