data_sod-g_I432  hall_number: 507, V_con: 3
_audit_creation_date              2025-03-06
_audit_creation_method            'MOFbuilder_1.0'
_symmetry_space_group_name_H-M    'P1'
_symmetry_Int_Tables_number       1
_symmetry_cell_setting            triclinic
loop_
_symmetry_equiv_pos_as_xyz
  x,y,z
_cell_length_a                    64.0082
_cell_length_b                    64.0082
_cell_length_c                    64.0082
_cell_angle_alpha                 90.0
_cell_angle_beta                  90.0
_cell_angle_gamma                 90.0
loop_
_atom_site_label
_atom_site_type_symbol
_atom_site_fract_x
_atom_site_fract_y
_atom_site_fract_z
V1    V   0.01736  0.31613  0.57616
V2    V   0.01736  0.42384  0.31613
V3    V   0.01736  0.57616  0.68387
V4    V   0.01736  0.68387  0.42384
V5    V   0.07616  0.18387  0.51736
V6    V   0.07616  0.48264  0.18387
V7    V   0.07616  0.51736  0.81613
V8    V   0.07616  0.81613  0.48264
V9    V   0.18387  0.07616  0.48264
V10   V   0.18387  0.48264  0.92384
V11   V   0.18387  0.51736  0.07616
V12   V   0.18387  0.92384  0.51736
V13   V   0.31613  0.01736  0.42384
V14   V   0.31613  0.42384  0.98264
V15   V   0.31613  0.57616  0.01736
V16   V   0.31613  0.98264  0.57616
V17   V   0.42384  0.01736  0.68387
V18   V   0.42384  0.31613  0.01736
V19   V   0.42384  0.68387  0.98264
V20   V   0.42384  0.98264  0.31613
V21   V   0.48264  0.07616  0.81613
V22   V   0.48264  0.18387  0.07616
V23   V   0.48264  0.81613  0.92384
V24   V   0.48264  0.92384  0.18387
V25   V   0.51736  0.07616  0.18387
V26   V   0.51736  0.18387  0.92384
V27   V   0.51736  0.81613  0.07616
V28   V   0.51736  0.92384  0.81613
V29   V   0.57616  0.01736  0.31613
V30   V   0.57616  0.31613  0.98264
V31   V   0.57616  0.68387  0.01736
V32   V   0.57616  0.98264  0.68387
V33   V   0.68387  0.01736  0.57616
V34   V   0.68387  0.42384  0.01736
V35   V   0.68387  0.57616  0.98264
V36   V   0.68387  0.98264  0.42384
V37   V   0.81613  0.07616  0.51736
V38   V   0.81613  0.48264  0.07616
V39   V   0.81613  0.51736  0.92384
V40   V   0.81613  0.92384  0.48264
V41   V   0.92384  0.18387  0.48264
V42   V   0.92384  0.48264  0.81613
V43   V   0.92384  0.51736  0.18387
V44   V   0.92384  0.81613  0.51736
V45   V   0.98264  0.31613  0.42384
V46   V   0.98264  0.42384  0.68387
V47   V   0.98264  0.57616  0.31613
V48   V   0.98264  0.68387  0.57616
E1    E   0.00000  0.18387  0.50000
E2    E   0.00000  0.31613  0.50000
E3    E   0.00000  0.36999  0.36999
E4    E   0.00000  0.36999  0.63001
E5    E   0.00000  0.50000  0.18387
E6    E   0.00000  0.50000  0.31613
E7    E   0.00000  0.50000  0.68387
E8    E   0.00000  0.50000  0.81613
E9    E   0.00000  0.63001  0.36999
E10   E   0.00000  0.63001  0.63001
E11   E   0.00000  0.68387  0.50000
E12   E   0.00000  0.81613  0.50000
E13   E   0.04676  0.25000  0.54676
E14   E   0.04676  0.45324  0.25000
E15   E   0.04676  0.54676  0.75000
E16   E   0.04676  0.75000  0.45324
E17   E   0.04676  0.25000  0.54676
E18   E   0.04676  0.45324  0.25000
E19   E   0.04676  0.54676  0.75000
E20   E   0.04676  0.75000  0.45324
E21   E   0.13001  0.13001  0.50000
E22   E   0.13001  0.50000  0.13001
E23   E   0.13001  0.50000  0.86999
E24   E   0.13001  0.86999  0.50000
E25   E   0.18387  0.00000  0.50000
E26   E   0.18387  0.50000  0.00000
E27   E   0.25000  0.04676  0.45324
E28   E   0.25000  0.04676  0.45324
E29   E   0.25000  0.45324  0.95324
E30   E   0.25000  0.54676  0.04676
E31   E   0.25000  0.54676  0.04676
E32   E   0.25000  0.95324  0.54676
E33   E   0.31613  0.00000  0.50000
E34   E   0.31613  0.50000  0.00000
E35   E   0.36999  0.00000  0.36999
E36   E   0.36999  0.00000  0.63001
E37   E   0.36999  0.36999  0.00000
E38   E   0.36999  0.63001  0.00000
E39   E   0.45324  0.04676  0.75000
E40   E   0.45324  0.04676  0.75000
E41   E   0.45324  0.25000  0.04676
E42   E   0.45324  0.25000  0.04676
E43   E   0.45324  0.75000  0.95324
E44   E   0.45324  0.95324  0.25000
E45   E   0.50000  0.00000  0.18387
E46   E   0.50000  0.00000  0.31613
E47   E   0.50000  0.00000  0.68387
E48   E   0.50000  0.00000  0.81613
E49   E   0.50000  0.13001  0.13001
E50   E   0.50000  0.13001  0.86999
E51   E   0.50000  0.18387  0.00000
E52   E   0.50000  0.31613  0.00000
E53   E   0.50000  0.68387  0.00000
E54   E   0.50000  0.81613  0.00000
E55   E   0.50000  0.86999  0.13001
E56   E   0.50000  0.86999  0.86999
E57   E   0.54676  0.04676  0.25000
E58   E   0.54676  0.04676  0.25000
E59   E   0.54676  0.25000  0.95324
E60   E   0.54676  0.75000  0.04676
E61   E   0.54676  0.75000  0.04676
E62   E   0.54676  0.95324  0.75000
E63   E   0.63001  0.00000  0.36999
E64   E   0.63001  0.00000  0.63001
E65   E   0.63001  0.36999  0.00000
E66   E   0.63001  0.63001  0.00000
E67   E   0.68387  0.00000  0.50000
E68   E   0.68387  0.50000  0.00000
E69   E   0.75000  0.04676  0.54676
E70   E   0.75000  0.04676  0.54676
E71   E   0.75000  0.45324  0.04676
E72   E   0.75000  0.45324  0.04676
E73   E   0.75000  0.54676  0.95324
E74   E   0.75000  0.95324  0.45324
E75   E   0.81613  0.00000  0.50000
E76   E   0.81613  0.50000  0.00000
E77   E   0.86999  0.13001  0.50000
E78   E   0.86999  0.50000  0.13001
E79   E   0.86999  0.50000  0.86999
E80   E   0.86999  0.86999  0.50000
E81   E   0.95324  0.25000  0.45324
E82   E   0.95324  0.45324  0.75000
E83   E   0.95324  0.54676  0.25000
E84   E   0.95324  0.75000  0.54676
loop_
