data_soj_Pbcn  hall_number: 284, V_con: 6
_audit_creation_date              2025-03-06
_audit_creation_method            'MOFbuilder_1.0'
_symmetry_space_group_name_H-M    'P1'
_symmetry_Int_Tables_number       1
_symmetry_cell_setting            triclinic
loop_
_symmetry_equiv_pos_as_xyz
  x,y,z
_cell_length_a                    18.3606
_cell_length_b                    24.7247
_cell_length_c                    16.7588
_cell_angle_alpha                 90.0
_cell_angle_beta                  90.0
_cell_angle_gamma                 90.0
loop_
_atom_site_label
_atom_site_type_symbol
_atom_site_fract_x
_atom_site_fract_y
_atom_site_fract_z
V1    V   0.14787  0.16982  0.99946
V2    V   0.14787  0.83018  0.49946
V3    V   0.35213  0.33018  0.49946
V4    V   0.35213  0.66982  0.99946
V5    V   0.64787  0.33018  0.00054
V6    V   0.64787  0.66982  0.50054
V7    V   0.85213  0.16982  0.50054
V8    V   0.85213  0.83018  0.00054
E1    E   0.00000  0.00000  0.00000
E2    E   0.00000  0.00000  0.50000
E3    E   0.00000  0.16982  0.25000
E4    E   0.00000  0.83018  0.75000
E5    E   0.10213  0.25000  0.50000
E6    E   0.10213  0.75000  0.00000
E7    E   0.25000  0.25000  0.24946
E8    E   0.25000  0.25000  0.74946
E9    E   0.25000  0.75000  0.24946
E10   E   0.25000  0.75000  0.74946
E11   E   0.39787  0.25000  0.00000
E12   E   0.39787  0.75000  0.50000
E13   E   0.50000  0.33018  0.75000
E14   E   0.50000  0.50000  0.00000
E15   E   0.50000  0.50000  0.50000
E16   E   0.50000  0.66982  0.25000
E17   E   0.60213  0.25000  0.50000
E18   E   0.60213  0.75000  0.00000
E19   E   0.75000  0.25000  0.25054
E20   E   0.75000  0.25000  0.75054
E21   E   0.75000  0.75000  0.25054
E22   E   0.75000  0.75000  0.75054
E23   E   0.89787  0.25000  0.00000
E24   E   0.89787  0.75000  0.50000
loop_
