data_srb_Imma  hall_number: 343, V_con: 4, EC_con: 4
_audit_creation_date              2025-03-06
_audit_creation_method            'MOFbuilder_1.0'
_symmetry_space_group_name_H-M    'P1'
_symmetry_Int_Tables_number       1
_symmetry_cell_setting            triclinic
loop_
_symmetry_equiv_pos_as_xyz
  x,y,z
_cell_length_a                    17.0688
_cell_length_b                    49.7185
_cell_length_c                    27.9047
_cell_angle_alpha                 90.0
_cell_angle_beta                  90.0
_cell_angle_gamma                 90.0
loop_
_atom_site_label
_atom_site_type_symbol
_atom_site_fract_x
_atom_site_fract_y
_atom_site_fract_z
V1    V   0.00000  0.25000  0.84338
V2    V   0.00000  0.75000  0.15662
V3    V   0.50000  0.25000  0.65662
V4    V   0.50000  0.75000  0.34338
EC1    EC   0.00000  0.04887  0.84339
EC2    EC   0.00000  0.45113  0.84339
EC3    EC   0.00000  0.54887  0.15661
EC4    EC   0.00000  0.95113  0.15661
EC5    EC   0.50000  0.04887  0.65661
EC6    EC   0.50000  0.45113  0.65661
EC7    EC   0.50000  0.54887  0.34339
EC8    EC   0.50000  0.95113  0.34339
E1    E   0.00000  0.00000  0.00000
E2    E   0.00000  0.14944  0.84338
E3    E   0.00000  0.35056  0.84338
E4    E   0.00000  0.50000  0.00000
E5    E   0.00000  0.64944  0.15662
E6    E   0.00000  0.85056  0.15662
E7    E   0.25000  0.04887  0.75000
E8    E   0.25000  0.25000  0.75000
E9    E   0.25000  0.45113  0.75000
E10   E   0.25000  0.54887  0.25000
E11   E   0.25000  0.75000  0.25000
E12   E   0.25000  0.95113  0.25000
E13   E   0.50000  0.00000  0.50000
E14   E   0.50000  0.14944  0.65662
E15   E   0.50000  0.35056  0.65662
E16   E   0.50000  0.50000  0.50000
E17   E   0.50000  0.64944  0.34338
E18   E   0.50000  0.85056  0.34338
E19   E   0.75000  0.04887  0.75000
E20   E   0.75000  0.25000  0.75000
E21   E   0.75000  0.45113  0.75000
E22   E   0.75000  0.54887  0.25000
E23   E   0.75000  0.75000  0.25000
E24   E   0.75000  0.95113  0.25000
loop_
