data_srs-a-e_I4132  hall_number: 510, V_con: 4, EC_con: 4
_audit_creation_date              2025-03-06
_audit_creation_method            'MOFbuilder_1.0'
_symmetry_space_group_name_H-M    'P1'
_symmetry_Int_Tables_number       1
_symmetry_cell_setting            triclinic
loop_
_symmetry_equiv_pos_as_xyz
  x,y,z
_cell_length_a                    65.3199
_cell_length_b                    65.3199
_cell_length_c                    65.3199
_cell_angle_alpha                 90.0
_cell_angle_beta                  90.0
_cell_angle_gamma                 90.0
loop_
_atom_site_label
_atom_site_type_symbol
_atom_site_fract_x
_atom_site_fract_y
_atom_site_fract_z
V1    V   0.00000  0.25000  0.12500
V2    V   0.00000  0.75000  0.37500
V3    V   0.12500  0.00000  0.25000
V4    V   0.25000  0.12500  0.00000
V5    V   0.25000  0.87500  0.50000
V6    V   0.37500  0.00000  0.75000
V7    V   0.50000  0.25000  0.87500
V8    V   0.50000  0.75000  0.62500
V9    V   0.62500  0.50000  0.75000
V10   V   0.75000  0.37500  0.00000
V11   V   0.75000  0.62500  0.50000
V12   V   0.87500  0.50000  0.25000
EC1    EC   0.06250  0.12500  0.18750
EC2    EC   0.06250  0.87500  0.31250
EC3    EC   0.12500  0.18750  0.06250
EC4    EC   0.12500  0.81250  0.43750
EC5    EC   0.18750  0.06250  0.12500
EC6    EC   0.18750  0.93750  0.37500
EC7    EC   0.31250  0.06250  0.87500
EC8    EC   0.31250  0.93750  0.62500
EC9    EC   0.37500  0.18750  0.93750
EC10   EC   0.37500  0.81250  0.56250
EC11   EC   0.43750  0.12500  0.81250
EC12   EC   0.43750  0.87500  0.68750
EC13   EC   0.56250  0.37500  0.81250
EC14   EC   0.56250  0.62500  0.68750
EC15   EC   0.62500  0.31250  0.93750
EC16   EC   0.62500  0.68750  0.56250
EC17   EC   0.68750  0.43750  0.87500
EC18   EC   0.68750  0.56250  0.62500
EC19   EC   0.81250  0.43750  0.12500
EC20   EC   0.81250  0.56250  0.37500
EC21   EC   0.87500  0.31250  0.06250
EC22   EC   0.87500  0.68750  0.43750
EC23   EC   0.93750  0.37500  0.18750
EC24   EC   0.93750  0.62500  0.31250
E1    E   0.03125  0.18750  0.15625
E2    E   0.03125  0.81250  0.34375
E3    E   0.06250  0.21875  0.09375
E4    E   0.06250  0.78125  0.40625
E5    E   0.09375  0.06250  0.21875
E6    E   0.09375  0.15625  0.12500
E7    E   0.09375  0.84375  0.37500
E8    E   0.09375  0.93750  0.28125
E9    E   0.12500  0.09375  0.15625
E10   E   0.12500  0.90625  0.34375
E11   E   0.15625  0.03125  0.18750
E12   E   0.15625  0.12500  0.09375
E13   E   0.15625  0.87500  0.40625
E14   E   0.15625  0.96875  0.31250
E15   E   0.18750  0.15625  0.03125
E16   E   0.18750  0.84375  0.46875
E17   E   0.21875  0.09375  0.06250
E18   E   0.21875  0.90625  0.43750
E19   E   0.28125  0.09375  0.93750
E20   E   0.28125  0.90625  0.56250
E21   E   0.31250  0.15625  0.96875
E22   E   0.31250  0.84375  0.53125
E23   E   0.34375  0.03125  0.81250
E24   E   0.34375  0.12500  0.90625
E25   E   0.34375  0.87500  0.59375
E26   E   0.34375  0.96875  0.68750
E27   E   0.37500  0.09375  0.84375
E28   E   0.37500  0.90625  0.65625
E29   E   0.40625  0.06250  0.78125
E30   E   0.40625  0.15625  0.87500
E31   E   0.40625  0.84375  0.62500
E32   E   0.40625  0.93750  0.71875
E33   E   0.43750  0.21875  0.90625
E34   E   0.43750  0.78125  0.59375
E35   E   0.46875  0.18750  0.84375
E36   E   0.46875  0.81250  0.65625
E37   E   0.53125  0.31250  0.84375
E38   E   0.53125  0.68750  0.65625
E39   E   0.56250  0.28125  0.90625
E40   E   0.56250  0.71875  0.59375
E41   E   0.59375  0.34375  0.87500
E42   E   0.59375  0.43750  0.78125
E43   E   0.59375  0.56250  0.71875
E44   E   0.59375  0.65625  0.62500
E45   E   0.62500  0.40625  0.84375
E46   E   0.62500  0.59375  0.65625
E47   E   0.65625  0.37500  0.90625
E48   E   0.65625  0.46875  0.81250
E49   E   0.65625  0.53125  0.68750
E50   E   0.65625  0.62500  0.59375
E51   E   0.68750  0.34375  0.96875
E52   E   0.68750  0.65625  0.53125
E53   E   0.71875  0.40625  0.93750
E54   E   0.71875  0.59375  0.56250
E55   E   0.78125  0.40625  0.06250
E56   E   0.78125  0.59375  0.43750
E57   E   0.81250  0.34375  0.03125
E58   E   0.81250  0.65625  0.46875
E59   E   0.84375  0.37500  0.09375
E60   E   0.84375  0.46875  0.18750
E61   E   0.84375  0.53125  0.31250
E62   E   0.84375  0.62500  0.40625
E63   E   0.87500  0.40625  0.15625
E64   E   0.87500  0.59375  0.34375
E65   E   0.90625  0.34375  0.12500
E66   E   0.90625  0.43750  0.21875
E67   E   0.90625  0.56250  0.28125
E68   E   0.90625  0.65625  0.37500
E69   E   0.93750  0.28125  0.09375
E70   E   0.93750  0.71875  0.40625
E71   E   0.96875  0.31250  0.15625
E72   E   0.96875  0.68750  0.34375
loop_
