data_ssd-e_Pm-3m  hall_number: 517, V_con: 4, EC_con: 4
_audit_creation_date              2025-03-06
_audit_creation_method            'MOFbuilder_1.0'
_symmetry_space_group_name_H-M    'P1'
_symmetry_Int_Tables_number       1
_symmetry_cell_setting            triclinic
loop_
_symmetry_equiv_pos_as_xyz
  x,y,z
_cell_length_a                    42.4264
_cell_length_b                    42.4264
_cell_length_c                    42.4264
_cell_angle_alpha                 90.0
_cell_angle_beta                  90.0
_cell_angle_gamma                 90.0
loop_
_atom_site_label
_atom_site_type_symbol
_atom_site_fract_x
_atom_site_fract_y
_atom_site_fract_z
V1    V   0.00000  0.16667  0.33333
V2    V   0.00000  0.16667  0.66667
V3    V   0.00000  0.33333  0.16667
V4    V   0.00000  0.33333  0.83333
V5    V   0.00000  0.66667  0.16667
V6    V   0.00000  0.66667  0.83333
V7    V   0.00000  0.83333  0.33333
V8    V   0.00000  0.83333  0.66667
V9    V   0.16667  0.00000  0.33333
V10   V   0.16667  0.00000  0.66667
V11   V   0.16667  0.33333  0.00000
V12   V   0.16667  0.66667  0.00000
V13   V   0.33333  0.00000  0.16667
V14   V   0.33333  0.00000  0.83333
V15   V   0.33333  0.16667  0.00000
V16   V   0.33333  0.83333  0.00000
V17   V   0.66667  0.00000  0.16667
V18   V   0.66667  0.00000  0.83333
V19   V   0.66667  0.16667  0.00000
V20   V   0.66667  0.83333  0.00000
V21   V   0.83333  0.00000  0.33333
V22   V   0.83333  0.00000  0.66667
V23   V   0.83333  0.33333  0.00000
V24   V   0.83333  0.66667  0.00000
EC1    EC   0.00000  0.33333  0.50000
EC2    EC   0.00000  0.50000  0.33333
EC3    EC   0.00000  0.50000  0.66667
EC4    EC   0.00000  0.66667  0.50000
EC5    EC   0.33333  0.00000  0.50000
EC6    EC   0.33333  0.50000  0.00000
EC7    EC   0.50000  0.00000  0.33333
EC8    EC   0.50000  0.00000  0.66667
EC9    EC   0.50000  0.33333  0.00000
EC10   EC   0.50000  0.66667  0.00000
EC11   EC   0.66667  0.00000  0.50000
EC12   EC   0.66667  0.50000  0.00000
E1    E   0.00000  0.25000  0.25000
E2    E   0.00000  0.25000  0.41667
E3    E   0.00000  0.25000  0.58333
E4    E   0.00000  0.25000  0.75000
E5    E   0.00000  0.41667  0.25000
E6    E   0.00000  0.41667  0.41667
E7    E   0.00000  0.41667  0.58333
E8    E   0.00000  0.41667  0.75000
E9    E   0.00000  0.58333  0.25000
E10   E   0.00000  0.58333  0.41667
E11   E   0.00000  0.58333  0.58333
E12   E   0.00000  0.58333  0.75000
E13   E   0.00000  0.75000  0.25000
E14   E   0.00000  0.75000  0.41667
E15   E   0.00000  0.75000  0.58333
E16   E   0.00000  0.75000  0.75000
E17   E   0.08333  0.08333  0.33333
E18   E   0.08333  0.08333  0.66667
E19   E   0.08333  0.33333  0.08333
E20   E   0.08333  0.33333  0.91667
E21   E   0.08333  0.66667  0.08333
E22   E   0.08333  0.66667  0.91667
E23   E   0.08333  0.91667  0.33333
E24   E   0.08333  0.91667  0.66667
E25   E   0.25000  0.00000  0.25000
E26   E   0.25000  0.00000  0.41667
E27   E   0.25000  0.00000  0.58333
E28   E   0.25000  0.00000  0.75000
E29   E   0.25000  0.25000  0.00000
E30   E   0.25000  0.41667  0.00000
E31   E   0.25000  0.58333  0.00000
E32   E   0.25000  0.75000  0.00000
E33   E   0.33333  0.08333  0.08333
E34   E   0.33333  0.08333  0.91667
E35   E   0.33333  0.91667  0.08333
E36   E   0.33333  0.91667  0.91667
E37   E   0.41667  0.00000  0.25000
E38   E   0.41667  0.00000  0.41667
E39   E   0.41667  0.00000  0.58333
E40   E   0.41667  0.00000  0.75000
E41   E   0.41667  0.25000  0.00000
E42   E   0.41667  0.41667  0.00000
E43   E   0.41667  0.58333  0.00000
E44   E   0.41667  0.75000  0.00000
E45   E   0.58333  0.00000  0.25000
E46   E   0.58333  0.00000  0.41667
E47   E   0.58333  0.00000  0.58333
E48   E   0.58333  0.00000  0.75000
E49   E   0.58333  0.25000  0.00000
E50   E   0.58333  0.41667  0.00000
E51   E   0.58333  0.58333  0.00000
E52   E   0.58333  0.75000  0.00000
E53   E   0.66667  0.08333  0.08333
E54   E   0.66667  0.08333  0.91667
E55   E   0.66667  0.91667  0.08333
E56   E   0.66667  0.91667  0.91667
E57   E   0.75000  0.00000  0.25000
E58   E   0.75000  0.00000  0.41667
E59   E   0.75000  0.00000  0.58333
E60   E   0.75000  0.00000  0.75000
E61   E   0.75000  0.25000  0.00000
E62   E   0.75000  0.41667  0.00000
E63   E   0.75000  0.58333  0.00000
E64   E   0.75000  0.75000  0.00000
E65   E   0.91667  0.08333  0.33333
E66   E   0.91667  0.08333  0.66667
E67   E   0.91667  0.33333  0.08333
E68   E   0.91667  0.33333  0.91667
E69   E   0.91667  0.66667  0.08333
E70   E   0.91667  0.66667  0.91667
E71   E   0.91667  0.91667  0.33333
E72   E   0.91667  0.91667  0.66667
loop_
