data_stp-a_P6/mmm  hall_number: 485, V_con: 4, EC_con: 3
_audit_creation_date              2025-03-06
_audit_creation_method            'MOFbuilder_1.0'
_symmetry_space_group_name_H-M    'P1'
_symmetry_Int_Tables_number       1
_symmetry_cell_setting            triclinic
loop_
_symmetry_equiv_pos_as_xyz
  x,y,z
_cell_length_a                    66.5235
_cell_length_b                    66.5235
_cell_length_c                    30.7578
_cell_angle_alpha                 90.0
_cell_angle_beta                  90.0
_cell_angle_gamma                 120.0
loop_
_atom_site_label
_atom_site_type_symbol
_atom_site_fract_x
_atom_site_fract_y
_atom_site_fract_z
V1    V   0.23312  0.61656  0.33744
V2    V   0.23312  0.61656  0.66256
V3    V   0.38344  0.61656  0.33744
V4    V   0.38344  0.61656  0.66256
V5    V   0.38344  0.76688  0.33744
V6    V   0.38344  0.76688  0.66256
V7    V   0.61656  0.23312  0.33744
V8    V   0.61656  0.23312  0.66256
V9    V   0.61656  0.38344  0.33744
V10   V   0.61656  0.38344  0.66256
V11   V   0.76688  0.38344  0.33744
V12   V   0.76688  0.38344  0.66256
EC1    EC   0.08679  0.54339  0.16256
EC2    EC   0.08679  0.54339  0.83744
EC3    EC   0.08679  0.54340  0.16256
EC4    EC   0.08679  0.54340  0.83744
EC5    EC   0.45660  0.54339  0.16256
EC6    EC   0.45660  0.54339  0.83744
EC7    EC   0.45660  0.91321  0.16256
EC8    EC   0.45660  0.91321  0.83744
EC9    EC   0.45661  0.54340  0.16256
EC10   EC   0.45661  0.54340  0.83744
EC11   EC   0.45661  0.91321  0.16256
EC12   EC   0.45661  0.91321  0.83744
EC13   EC   0.54339  0.08679  0.16256
EC14   EC   0.54339  0.08679  0.83744
EC15   EC   0.54339  0.45660  0.16256
EC16   EC   0.54339  0.45660  0.83744
EC17   EC   0.54340  0.08679  0.16256
EC18   EC   0.54340  0.08679  0.83744
EC19   EC   0.54340  0.45661  0.16256
EC20   EC   0.54340  0.45661  0.83744
EC21   EC   0.91321  0.45660  0.16256
EC22   EC   0.91321  0.45660  0.83744
EC23   EC   0.91321  0.45661  0.16256
EC24   EC   0.91321  0.45661  0.83744
E1    E   0.00000  0.50000  0.16256
E2    E   0.00000  0.50000  0.83744
E3    E   0.08679  0.54339  0.00000
E4    E   0.08679  0.54340  0.00000
E5    E   0.15995  0.57997  0.25000
E6    E   0.15995  0.57997  0.75000
E7    E   0.15995  0.57998  0.25000
E8    E   0.15995  0.57998  0.75000
E9    E   0.23312  0.61656  0.50000
E10   E   0.30828  0.61656  0.33744
E11   E   0.30828  0.61656  0.66256
E12   E   0.30828  0.69172  0.33744
E13   E   0.30828  0.69172  0.66256
E14   E   0.38344  0.61656  0.50000
E15   E   0.38344  0.69172  0.33744
E16   E   0.38344  0.69172  0.66256
E17   E   0.38344  0.76688  0.50000
E18   E   0.42002  0.57997  0.25000
E19   E   0.42002  0.57997  0.75000
E20   E   0.42002  0.84005  0.25000
E21   E   0.42002  0.84005  0.75000
E22   E   0.42003  0.57998  0.25000
E23   E   0.42003  0.57998  0.75000
E24   E   0.42003  0.84005  0.25000
E25   E   0.42003  0.84005  0.75000
E26   E   0.45660  0.54339  0.00000
E27   E   0.45660  0.91321  0.00000
E28   E   0.45661  0.54340  0.00000
E29   E   0.45661  0.91321  0.00000
E30   E   0.50000  0.00000  0.16256
E31   E   0.50000  0.00000  0.83744
E32   E   0.50000  0.50000  0.16256
E33   E   0.50000  0.50000  0.83744
E34   E   0.54339  0.08679  0.00000
E35   E   0.54339  0.45660  0.00000
E36   E   0.54340  0.08679  0.00000
E37   E   0.54340  0.45661  0.00000
E38   E   0.57997  0.15995  0.25000
E39   E   0.57997  0.15995  0.75000
E40   E   0.57997  0.42002  0.25000
E41   E   0.57997  0.42002  0.75000
E42   E   0.57998  0.15995  0.25000
E43   E   0.57998  0.15995  0.75000
E44   E   0.57998  0.42003  0.25000
E45   E   0.57998  0.42003  0.75000
E46   E   0.61656  0.23312  0.50000
E47   E   0.61656  0.30828  0.33744
E48   E   0.61656  0.30828  0.66256
E49   E   0.61656  0.38344  0.50000
E50   E   0.69172  0.30828  0.33744
E51   E   0.69172  0.30828  0.66256
E52   E   0.69172  0.38344  0.33744
E53   E   0.69172  0.38344  0.66256
E54   E   0.76688  0.38344  0.50000
E55   E   0.84005  0.42002  0.25000
E56   E   0.84005  0.42002  0.75000
E57   E   0.84005  0.42003  0.25000
E58   E   0.84005  0.42003  0.75000
E59   E   0.91321  0.45660  0.00000
E60   E   0.91321  0.45661  0.00000
loop_
