data_stu_I4/mmm  hall_number: 424, V_con: 4, EC_con: 3
_audit_creation_date              2025-03-06
_audit_creation_method            'MOFbuilder_1.0'
_symmetry_space_group_name_H-M    'P1'
_symmetry_Int_Tables_number       1
_symmetry_cell_setting            triclinic
loop_
_symmetry_equiv_pos_as_xyz
  x,y,z
_cell_length_a                    44.4848
_cell_length_b                    44.4848
_cell_length_c                    26.0638
_cell_angle_alpha                 90.0
_cell_angle_beta                  90.0
_cell_angle_gamma                 90.0
loop_
_atom_site_label
_atom_site_type_symbol
_atom_site_fract_x
_atom_site_fract_y
_atom_site_fract_z
V1    V   0.00000  0.32907  0.50000
V2    V   0.00000  0.67093  0.50000
V3    V   0.17093  0.50000  0.00000
V4    V   0.32907  0.00000  0.50000
V5    V   0.50000  0.17093  0.00000
V6    V   0.50000  0.82907  0.00000
V7    V   0.67093  0.00000  0.50000
V8    V   0.82907  0.50000  0.00000
EC1    EC   0.17052  0.32948  0.25000
EC2    EC   0.17052  0.32948  0.75000
EC3    EC   0.17052  0.67052  0.25000
EC4    EC   0.17052  0.67052  0.75000
EC5    EC   0.32948  0.17052  0.25000
EC6    EC   0.32948  0.17052  0.75000
EC7    EC   0.32948  0.82948  0.25000
EC8    EC   0.32948  0.82948  0.75000
EC9    EC   0.67052  0.17052  0.25000
EC10   EC   0.67052  0.17052  0.75000
EC11   EC   0.67052  0.82948  0.25000
EC12   EC   0.67052  0.82948  0.75000
EC13   EC   0.82948  0.32948  0.25000
EC14   EC   0.82948  0.32948  0.75000
EC15   EC   0.82948  0.67052  0.25000
EC16   EC   0.82948  0.67052  0.75000
E1    E   0.08526  0.32927  0.37500
E2    E   0.08526  0.32927  0.62500
E3    E   0.08526  0.67073  0.37500
E4    E   0.08526  0.67073  0.62500
E5    E   0.17073  0.41474  0.12500
E6    E   0.17073  0.41474  0.87500
E7    E   0.17073  0.58526  0.12500
E8    E   0.17073  0.58526  0.87500
E9    E   0.25000  0.25000  0.25000
E10   E   0.25000  0.25000  0.75000
E11   E   0.25000  0.75000  0.25000
E12   E   0.25000  0.75000  0.75000
E13   E   0.32927  0.08526  0.37500
E14   E   0.32927  0.08526  0.62500
E15   E   0.32927  0.91474  0.37500
E16   E   0.32927  0.91474  0.62500
E17   E   0.41474  0.17073  0.12500
E18   E   0.41474  0.17073  0.87500
E19   E   0.41474  0.82927  0.12500
E20   E   0.41474  0.82927  0.87500
E21   E   0.58526  0.17073  0.12500
E22   E   0.58526  0.17073  0.87500
E23   E   0.58526  0.82927  0.12500
E24   E   0.58526  0.82927  0.87500
E25   E   0.67073  0.08526  0.37500
E26   E   0.67073  0.08526  0.62500
E27   E   0.67073  0.91474  0.37500
E28   E   0.67073  0.91474  0.62500
E29   E   0.75000  0.25000  0.25000
E30   E   0.75000  0.25000  0.75000
E31   E   0.75000  0.75000  0.25000
E32   E   0.75000  0.75000  0.75000
E33   E   0.82927  0.41474  0.12500
E34   E   0.82927  0.41474  0.87500
E35   E   0.82927  0.58526  0.12500
E36   E   0.82927  0.58526  0.87500
E37   E   0.91474  0.32927  0.37500
E38   E   0.91474  0.32927  0.62500
E39   E   0.91474  0.67073  0.37500
E40   E   0.91474  0.67073  0.62500
loop_
