data_svc_I41/acd:2  hall_number: 429, V_con: 7
_audit_creation_date              2025-03-06
_audit_creation_method            'MOFbuilder_1.0'
_symmetry_space_group_name_H-M    'P1'
_symmetry_Int_Tables_number       1
_symmetry_cell_setting            triclinic
loop_
_symmetry_equiv_pos_as_xyz
  x,y,z
_cell_length_a                    19.3186
_cell_length_b                    19.3186
_cell_length_c                    38.6368
_cell_angle_alpha                 90.0
_cell_angle_beta                  90.0
_cell_angle_gamma                 90.0
loop_
_atom_site_label
_atom_site_type_symbol
_atom_site_fract_x
_atom_site_fract_y
_atom_site_fract_z
V1    V   0.18301  0.06699  0.62500
V2    V   0.18301  0.43301  0.12500
V3    V   0.18301  0.56699  0.37500
V4    V   0.18301  0.93301  0.87500
V5    V   0.18301  0.06699  0.62500
V6    V   0.18301  0.43301  0.12500
V7    V   0.18301  0.56699  0.37500
V8    V   0.18301  0.93301  0.87500
V9    V   0.31699  0.06699  0.37500
V10   V   0.31699  0.43301  0.87500
V11   V   0.31699  0.56699  0.62500
V12   V   0.31699  0.93301  0.12500
V13   V   0.68301  0.06699  0.87500
V14   V   0.68301  0.43301  0.37500
V15   V   0.68301  0.56699  0.12500
V16   V   0.68301  0.93301  0.62500
V17   V   0.81699  0.06699  0.12500
V18   V   0.81699  0.43301  0.62500
V19   V   0.81699  0.56699  0.87500
V20   V   0.81699  0.93301  0.37500
E1    E   0.00000  0.25000  0.12500
E2    E   0.00000  0.25000  0.62500
E3    E   0.00000  0.75000  0.37500
E4    E   0.00000  0.75000  0.87500
E5    E   0.06699  0.00000  0.12500
E6    E   0.06699  0.00000  0.37500
E7    E   0.06699  0.50000  0.62500
E8    E   0.06699  0.50000  0.87500
E9    E   0.18301  0.00000  0.75000
E10   E   0.18301  0.50000  0.25000
E11   E   0.25000  0.06699  0.50000
E12   E   0.25000  0.18301  0.12500
E13   E   0.25000  0.18301  0.87500
E14   E   0.25000  0.31699  0.37500
E15   E   0.25000  0.31699  0.62500
E16   E   0.25000  0.43301  0.00000
E17   E   0.25000  0.56699  0.50000
E18   E   0.25000  0.68301  0.12500
E19   E   0.25000  0.68301  0.87500
E20   E   0.25000  0.81699  0.37500
E21   E   0.25000  0.81699  0.62500
E22   E   0.25000  0.93301  0.00000
E23   E   0.31699  0.00000  0.25000
E24   E   0.31699  0.50000  0.75000
E25   E   0.43301  0.00000  0.62500
E26   E   0.43301  0.00000  0.87500
E27   E   0.43301  0.50000  0.12500
E28   E   0.43301  0.50000  0.37500
E29   E   0.50000  0.25000  0.37500
E30   E   0.50000  0.25000  0.87500
E31   E   0.50000  0.75000  0.12500
E32   E   0.50000  0.75000  0.62500
E33   E   0.56699  0.00000  0.12500
E34   E   0.56699  0.00000  0.37500
E35   E   0.56699  0.50000  0.62500
E36   E   0.56699  0.50000  0.87500
E37   E   0.68301  0.00000  0.75000
E38   E   0.68301  0.50000  0.25000
E39   E   0.75000  0.06699  0.00000
E40   E   0.75000  0.18301  0.37500
E41   E   0.75000  0.18301  0.62500
E42   E   0.75000  0.31699  0.12500
E43   E   0.75000  0.31699  0.87500
E44   E   0.75000  0.43301  0.50000
E45   E   0.75000  0.56699  0.00000
E46   E   0.75000  0.68301  0.37500
E47   E   0.75000  0.68301  0.62500
E48   E   0.75000  0.81699  0.12500
E49   E   0.75000  0.81699  0.87500
E50   E   0.75000  0.93301  0.50000
E51   E   0.81699  0.00000  0.25000
E52   E   0.81699  0.50000  0.75000
E53   E   0.93301  0.00000  0.62500
E54   E   0.93301  0.00000  0.87500
E55   E   0.93301  0.50000  0.12500
E56   E   0.93301  0.50000  0.37500
loop_
