data_svl_Pm-3n  hall_number: 520, V_con: 7
_audit_creation_date              2025-03-06
_audit_creation_method            'MOFbuilder_1.0'
_symmetry_space_group_name_H-M    'P1'
_symmetry_Int_Tables_number       1
_symmetry_cell_setting            triclinic
loop_
_symmetry_equiv_pos_as_xyz
  x,y,z
_cell_length_a                    28.8593
_cell_length_b                    28.8593
_cell_length_c                    28.8593
_cell_angle_alpha                 90.0
_cell_angle_beta                  90.0
_cell_angle_gamma                 90.0
loop_
_atom_site_label
_atom_site_type_symbol
_atom_site_fract_x
_atom_site_fract_y
_atom_site_fract_z
V1    V   0.00000  0.17325  0.28033
V2    V   0.00000  0.17325  0.71967
V3    V   0.00000  0.82675  0.28033
V4    V   0.00000  0.82675  0.71967
V5    V   0.17325  0.28033  0.00000
V6    V   0.17325  0.71967  0.00000
V7    V   0.21967  0.32675  0.50000
V8    V   0.21967  0.67325  0.50000
V9    V   0.28033  0.00000  0.17325
V10   V   0.28033  0.00000  0.82675
V11   V   0.32675  0.50000  0.21967
V12   V   0.32675  0.50000  0.78033
V13   V   0.50000  0.21967  0.32675
V14   V   0.50000  0.21967  0.67325
V15   V   0.50000  0.78033  0.32675
V16   V   0.50000  0.78033  0.67325
V17   V   0.67325  0.50000  0.21967
V18   V   0.67325  0.50000  0.78033
V19   V   0.71967  0.00000  0.17325
V20   V   0.71967  0.00000  0.82675
V21   V   0.78033  0.32675  0.50000
V22   V   0.78033  0.67325  0.50000
V23   V   0.82675  0.28033  0.00000
V24   V   0.82675  0.71967  0.00000
E1    E   0.00000  0.00000  0.28033
E2    E   0.00000  0.00000  0.71967
E3    E   0.00000  0.28033  0.00000
E4    E   0.00000  0.71967  0.00000
E5    E   0.08663  0.22679  0.14017
E6    E   0.08663  0.22679  0.85983
E7    E   0.08663  0.77321  0.14017
E8    E   0.08663  0.77321  0.85983
E9    E   0.10983  0.25000  0.39017
E10   E   0.10983  0.25000  0.60983
E11   E   0.10983  0.75000  0.39017
E12   E   0.10983  0.75000  0.60983
E13   E   0.10983  0.25000  0.39017
E14   E   0.10983  0.25000  0.60983
E15   E   0.10983  0.75000  0.39017
E16   E   0.10983  0.75000  0.60983
E17   E   0.14017  0.08663  0.22679
E18   E   0.14017  0.08663  0.77321
E19   E   0.14017  0.91337  0.22679
E20   E   0.14017  0.91337  0.77321
E21   E   0.21967  0.50000  0.50000
E22   E   0.22679  0.14017  0.08663
E23   E   0.22679  0.14017  0.91337
E24   E   0.22679  0.85983  0.08663
E25   E   0.22679  0.85983  0.91337
E26   E   0.25000  0.39017  0.10983
E27   E   0.25000  0.39017  0.10983
E28   E   0.25000  0.39017  0.89017
E29   E   0.25000  0.60983  0.10983
E30   E   0.25000  0.60983  0.10983
E31   E   0.25000  0.60983  0.89017
E32   E   0.27321  0.41337  0.35983
E33   E   0.27321  0.41337  0.64017
E34   E   0.27321  0.58663  0.35983
E35   E   0.27321  0.58663  0.64017
E36   E   0.28033  0.00000  0.00000
E37   E   0.35983  0.27321  0.41337
E38   E   0.35983  0.27321  0.58663
E39   E   0.35983  0.72679  0.41337
E40   E   0.35983  0.72679  0.58663
E41   E   0.39017  0.10983  0.25000
E42   E   0.39017  0.10983  0.75000
E43   E   0.39017  0.10983  0.25000
E44   E   0.39017  0.10983  0.75000
E45   E   0.39017  0.89017  0.25000
E46   E   0.39017  0.89017  0.75000
E47   E   0.41337  0.35983  0.27321
E48   E   0.41337  0.35983  0.72679
E49   E   0.41337  0.64017  0.27321
E50   E   0.41337  0.64017  0.72679
E51   E   0.50000  0.21967  0.50000
E52   E   0.50000  0.50000  0.21967
E53   E   0.50000  0.50000  0.78033
E54   E   0.50000  0.78033  0.50000
E55   E   0.58663  0.35983  0.27321
E56   E   0.58663  0.35983  0.72679
E57   E   0.58663  0.64017  0.27321
E58   E   0.58663  0.64017  0.72679
E59   E   0.60983  0.10983  0.25000
E60   E   0.60983  0.10983  0.75000
E61   E   0.60983  0.10983  0.25000
E62   E   0.60983  0.10983  0.75000
E63   E   0.60983  0.89017  0.25000
E64   E   0.60983  0.89017  0.75000
E65   E   0.64017  0.27321  0.41337
E66   E   0.64017  0.27321  0.58663
E67   E   0.64017  0.72679  0.41337
E68   E   0.64017  0.72679  0.58663
E69   E   0.71967  0.00000  0.00000
E70   E   0.72679  0.41337  0.35983
E71   E   0.72679  0.41337  0.64017
E72   E   0.72679  0.58663  0.35983
E73   E   0.72679  0.58663  0.64017
E74   E   0.75000  0.39017  0.10983
E75   E   0.75000  0.39017  0.10983
E76   E   0.75000  0.39017  0.89017
E77   E   0.75000  0.60983  0.10983
E78   E   0.75000  0.60983  0.10983
E79   E   0.75000  0.60983  0.89017
E80   E   0.77321  0.14017  0.08663
E81   E   0.77321  0.14017  0.91337
E82   E   0.77321  0.85983  0.08663
E83   E   0.77321  0.85983  0.91337
E84   E   0.78033  0.50000  0.50000
E85   E   0.85983  0.08663  0.22679
E86   E   0.85983  0.08663  0.77321
E87   E   0.85983  0.91337  0.22679
E88   E   0.85983  0.91337  0.77321
E89   E   0.89017  0.25000  0.39017
E90   E   0.89017  0.25000  0.60983
E91   E   0.89017  0.75000  0.39017
E92   E   0.89017  0.75000  0.60983
E93   E   0.91337  0.22679  0.14017
E94   E   0.91337  0.22679  0.85983
E95   E   0.91337  0.77321  0.14017
E96   E   0.91337  0.77321  0.85983
loop_
