data_swa_Pn-3n:2  hall_number: 519, V_con: 7
_audit_creation_date              2025-03-06
_audit_creation_method            'MOFbuilder_1.0'
_symmetry_space_group_name_H-M    'P1'
_symmetry_Int_Tables_number       1
_symmetry_cell_setting            triclinic
loop_
_symmetry_equiv_pos_as_xyz
  x,y,z
_cell_length_a                    38.3407
_cell_length_b                    38.3407
_cell_length_c                    38.3407
_cell_angle_alpha                 90.0
_cell_angle_beta                  90.0
_cell_angle_gamma                 90.0
loop_
_atom_site_label
_atom_site_type_symbol
_atom_site_fract_x
_atom_site_fract_y
_atom_site_fract_z
V1    V   0.08411  0.16941  0.86562
V2    V   0.08411  0.33059  0.63438
V3    V   0.08411  0.63438  0.16941
V4    V   0.08411  0.86562  0.33059
V5    V   0.13438  0.58411  0.66941
V6    V   0.13438  0.66941  0.91589
V7    V   0.13438  0.83059  0.58411
V8    V   0.13438  0.91589  0.83059
V9    V   0.16941  0.08411  0.63438
V10   V   0.16941  0.41589  0.86562
V11   V   0.16941  0.63438  0.41589
V12   V   0.16941  0.86562  0.08411
V13   V   0.33059  0.08411  0.86562
V14   V   0.33059  0.41589  0.63438
V15   V   0.33059  0.63438  0.08411
V16   V   0.33059  0.86562  0.41589
V17   V   0.36562  0.58411  0.83059
V18   V   0.36562  0.66941  0.58411
V19   V   0.36562  0.83059  0.91589
V20   V   0.36562  0.91589  0.66941
V21   V   0.41589  0.16941  0.63438
V22   V   0.41589  0.33059  0.86562
V23   V   0.41589  0.63438  0.33059
V24   V   0.41589  0.86562  0.16941
V25   V   0.58411  0.13438  0.83059
V26   V   0.58411  0.36562  0.66941
V27   V   0.58411  0.66941  0.13438
V28   V   0.58411  0.83059  0.36562
V29   V   0.63438  0.08411  0.33059
V30   V   0.63438  0.16941  0.08411
V31   V   0.63438  0.33059  0.41589
V32   V   0.63438  0.41589  0.16941
V33   V   0.66941  0.13438  0.58411
V34   V   0.66941  0.36562  0.91589
V35   V   0.66941  0.58411  0.36562
V36   V   0.66941  0.91589  0.13438
V37   V   0.83059  0.13438  0.91589
V38   V   0.83059  0.36562  0.58411
V39   V   0.83059  0.58411  0.13438
V40   V   0.83059  0.91589  0.36562
V41   V   0.86562  0.08411  0.16941
V42   V   0.86562  0.16941  0.41589
V43   V   0.86562  0.33059  0.08411
V44   V   0.86562  0.41589  0.33059
V45   V   0.91589  0.13438  0.66941
V46   V   0.91589  0.36562  0.83059
V47   V   0.91589  0.66941  0.36562
V48   V   0.91589  0.83059  0.13438
E1    E   0.00000  0.15189  0.76752
E2    E   0.00000  0.23248  0.65189
E3    E   0.00000  0.26752  0.84811
E4    E   0.00000  0.34811  0.73248
E5    E   0.00000  0.65189  0.26752
E6    E   0.00000  0.73248  0.15189
E7    E   0.00000  0.76752  0.34811
E8    E   0.00000  0.84811  0.23248
E9    E   0.04265  0.10924  0.65189
E10   E   0.04265  0.39076  0.84811
E11   E   0.04265  0.65189  0.39076
E12   E   0.04265  0.84811  0.10924
E13   E   0.10924  0.04265  0.84811
E14   E   0.10924  0.45735  0.65189
E15   E   0.10924  0.65189  0.04265
E16   E   0.10924  0.84811  0.45735
E17   E   0.12676  0.12676  0.75000
E18   E   0.12676  0.20735  0.63438
E19   E   0.12676  0.29265  0.86562
E20   E   0.12676  0.37324  0.75000
E21   E   0.12676  0.63438  0.29265
E22   E   0.12676  0.75000  0.12676
E23   E   0.12676  0.75000  0.37324
E24   E   0.12676  0.86562  0.20735
E25   E   0.13438  0.62676  0.79265
E26   E   0.13438  0.70735  0.62676
E27   E   0.13438  0.79265  0.87324
E28   E   0.13438  0.87324  0.70735
E29   E   0.15189  0.00000  0.73248
E30   E   0.15189  0.50000  0.76752
E31   E   0.15189  0.54265  0.89076
E32   E   0.15189  0.60924  0.54265
E33   E   0.15189  0.73248  0.50000
E34   E   0.15189  0.76752  0.00000
E35   E   0.15189  0.89076  0.95735
E36   E   0.15189  0.95735  0.60924
E37   E   0.20735  0.12676  0.86562
E38   E   0.20735  0.37324  0.63438
E39   E   0.20735  0.63438  0.12676
E40   E   0.20735  0.86562  0.37324
E41   E   0.23248  0.00000  0.84811
E42   E   0.23248  0.50000  0.65189
E43   E   0.23248  0.65189  0.00000
E44   E   0.23248  0.84811  0.50000
E45   E   0.25000  0.62676  0.62676
E46   E   0.25000  0.62676  0.87324
E47   E   0.25000  0.87324  0.62676
E48   E   0.25000  0.87324  0.87324
E49   E   0.26752  0.00000  0.65189
E50   E   0.26752  0.50000  0.84811
E51   E   0.26752  0.65189  0.50000
E52   E   0.26752  0.84811  0.00000
E53   E   0.29265  0.12676  0.63438
E54   E   0.29265  0.37324  0.86562
E55   E   0.29265  0.63438  0.37324
E56   E   0.29265  0.86562  0.12676
E57   E   0.34811  0.00000  0.76752
E58   E   0.34811  0.50000  0.73248
E59   E   0.34811  0.54265  0.60924
E60   E   0.34811  0.60924  0.95735
E61   E   0.34811  0.73248  0.00000
E62   E   0.34811  0.76752  0.50000
E63   E   0.34811  0.89076  0.54265
E64   E   0.34811  0.95735  0.89076
E65   E   0.36562  0.62676  0.70735
E66   E   0.36562  0.70735  0.87324
E67   E   0.36562  0.79265  0.62676
E68   E   0.36562  0.87324  0.79265
E69   E   0.37324  0.12676  0.75000
E70   E   0.37324  0.20735  0.86562
E71   E   0.37324  0.29265  0.63438
E72   E   0.37324  0.37324  0.75000
E73   E   0.37324  0.63438  0.20735
E74   E   0.37324  0.75000  0.12676
E75   E   0.37324  0.75000  0.37324
E76   E   0.37324  0.86562  0.29265
E77   E   0.39076  0.04265  0.65189
E78   E   0.39076  0.45735  0.84811
E79   E   0.39076  0.65189  0.45735
E80   E   0.39076  0.84811  0.04265
E81   E   0.45735  0.10924  0.84811
E82   E   0.45735  0.39076  0.65189
E83   E   0.45735  0.65189  0.10924
E84   E   0.45735  0.84811  0.39076
E85   E   0.50000  0.15189  0.73248
E86   E   0.50000  0.23248  0.84811
E87   E   0.50000  0.26752  0.65189
E88   E   0.50000  0.34811  0.76752
E89   E   0.50000  0.65189  0.23248
E90   E   0.50000  0.73248  0.34811
E91   E   0.50000  0.76752  0.15189
E92   E   0.50000  0.84811  0.26752
E93   E   0.54265  0.15189  0.60924
E94   E   0.54265  0.34811  0.89076
E95   E   0.54265  0.60924  0.34811
E96   E   0.54265  0.89076  0.15189
E97   E   0.60924  0.15189  0.95735
E98   E   0.60924  0.34811  0.54265
E99   E   0.60924  0.54265  0.15189
E100  E   0.60924  0.95735  0.34811
E101  E   0.62676  0.13438  0.70735
E102  E   0.62676  0.25000  0.62676
E103  E   0.62676  0.25000  0.87324
E104  E   0.62676  0.36562  0.79265
E105  E   0.62676  0.62676  0.25000
E106  E   0.62676  0.70735  0.36562
E107  E   0.62676  0.79265  0.13438
E108  E   0.62676  0.87324  0.25000
E109  E   0.63438  0.12676  0.20735
E110  E   0.63438  0.20735  0.37324
E111  E   0.63438  0.29265  0.12676
E112  E   0.63438  0.37324  0.29265
E113  E   0.65189  0.00000  0.23248
E114  E   0.65189  0.04265  0.10924
E115  E   0.65189  0.10924  0.45735
E116  E   0.65189  0.23248  0.50000
E117  E   0.65189  0.26752  0.00000
E118  E   0.65189  0.39076  0.04265
E119  E   0.65189  0.45735  0.39076
E120  E   0.65189  0.50000  0.26752
E121  E   0.70735  0.13438  0.87324
E122  E   0.70735  0.36562  0.62676
E123  E   0.70735  0.62676  0.13438
E124  E   0.70735  0.87324  0.36562
E125  E   0.73248  0.00000  0.34811
E126  E   0.73248  0.15189  0.00000
E127  E   0.73248  0.34811  0.50000
E128  E   0.73248  0.50000  0.15189
E129  E   0.75000  0.12676  0.12676
E130  E   0.75000  0.12676  0.37324
E131  E   0.75000  0.37324  0.12676
E132  E   0.75000  0.37324  0.37324
E133  E   0.76752  0.00000  0.15189
E134  E   0.76752  0.15189  0.50000
E135  E   0.76752  0.34811  0.00000
E136  E   0.76752  0.50000  0.34811
E137  E   0.79265  0.13438  0.62676
E138  E   0.79265  0.36562  0.87324
E139  E   0.79265  0.62676  0.36562
E140  E   0.79265  0.87324  0.13438
E141  E   0.84811  0.00000  0.26752
E142  E   0.84811  0.04265  0.39076
E143  E   0.84811  0.10924  0.04265
E144  E   0.84811  0.23248  0.00000
E145  E   0.84811  0.26752  0.50000
E146  E   0.84811  0.39076  0.45735
E147  E   0.84811  0.45735  0.10924
E148  E   0.84811  0.50000  0.23248
E149  E   0.86562  0.12676  0.29265
E150  E   0.86562  0.20735  0.12676
E151  E   0.86562  0.29265  0.37324
E152  E   0.86562  0.37324  0.20735
E153  E   0.87324  0.13438  0.79265
E154  E   0.87324  0.25000  0.62676
E155  E   0.87324  0.25000  0.87324
E156  E   0.87324  0.36562  0.70735
E157  E   0.87324  0.62676  0.25000
E158  E   0.87324  0.70735  0.13438
E159  E   0.87324  0.79265  0.36562
E160  E   0.87324  0.87324  0.25000
E161  E   0.89076  0.15189  0.54265
E162  E   0.89076  0.34811  0.95735
E163  E   0.89076  0.54265  0.34811
E164  E   0.89076  0.95735  0.15189
E165  E   0.95735  0.15189  0.89076
E166  E   0.95735  0.34811  0.60924
E167  E   0.95735  0.60924  0.15189
E168  E   0.95735  0.89076  0.34811
loop_
