data_swm_I4132  hall_number: 510, V_con: 7
_audit_creation_date              2025-03-06
_audit_creation_method            'MOFbuilder_1.0'
_symmetry_space_group_name_H-M    'P1'
_symmetry_Int_Tables_number       1
_symmetry_cell_setting            triclinic
loop_
_symmetry_equiv_pos_as_xyz
  x,y,z
_cell_length_a                    39.7873
_cell_length_b                    39.7873
_cell_length_c                    39.7873
_cell_angle_alpha                 90.0
_cell_angle_beta                  90.0
_cell_angle_gamma                 90.0
loop_
_atom_site_label
_atom_site_type_symbol
_atom_site_fract_x
_atom_site_fract_y
_atom_site_fract_z
V1    V   0.04094  0.04361  0.65859
V2    V   0.04094  0.95639  0.84141
V3    V   0.04361  0.34141  0.45906
V4    V   0.04361  0.65859  0.04094
V5    V   0.09141  0.29361  0.79094
V6    V   0.09141  0.70639  0.70906
V7    V   0.15859  0.45906  0.95639
V8    V   0.15859  0.54094  0.54361
V9    V   0.20639  0.20906  0.59141
V10   V   0.20639  0.79094  0.90859
V11   V   0.20906  0.40859  0.29361
V12   V   0.20906  0.59141  0.20639
V13   V   0.29094  0.40859  0.70639
V14   V   0.29094  0.59141  0.79361
V15   V   0.29361  0.20906  0.40859
V16   V   0.29361  0.79094  0.09141
V17   V   0.34141  0.45906  0.04361
V18   V   0.34141  0.54094  0.45639
V19   V   0.40859  0.29361  0.20906
V20   V   0.40859  0.70639  0.29094
V21   V   0.45639  0.34141  0.54094
V22   V   0.45639  0.65859  0.95906
V23   V   0.45906  0.04361  0.34141
V24   V   0.45906  0.95639  0.15859
V25   V   0.54094  0.45639  0.34141
V26   V   0.54094  0.54361  0.15859
V27   V   0.54361  0.15859  0.54094
V28   V   0.54361  0.84141  0.95906
V29   V   0.59141  0.20639  0.20906
V30   V   0.59141  0.79361  0.29094
V31   V   0.65859  0.04094  0.04361
V32   V   0.65859  0.95906  0.45639
V33   V   0.70639  0.29094  0.40859
V34   V   0.70639  0.70906  0.09141
V35   V   0.70906  0.09141  0.70639
V36   V   0.70906  0.90859  0.79361
V37   V   0.79094  0.09141  0.29361
V38   V   0.79094  0.90859  0.20639
V39   V   0.79361  0.29094  0.59141
V40   V   0.79361  0.70906  0.90859
V41   V   0.84141  0.04094  0.95639
V42   V   0.84141  0.95906  0.54361
V43   V   0.90859  0.20639  0.79094
V44   V   0.90859  0.79361  0.70906
V45   V   0.95639  0.15859  0.45906
V46   V   0.95639  0.84141  0.04094
V47   V   0.95906  0.45639  0.65859
V48   V   0.95906  0.54361  0.84141
E1    E   0.00000  0.25000  0.45906
E2    E   0.00000  0.25000  0.79094
E3    E   0.00000  0.75000  0.04094
E4    E   0.00000  0.75000  0.70906
E5    E   0.00134  0.39890  0.55882
E6    E   0.00134  0.60110  0.94118
E7    E   0.02524  0.37500  0.72476
E8    E   0.02524  0.41861  0.81618
E9    E   0.02524  0.58139  0.68382
E10   E   0.02524  0.62500  0.77524
E11   E   0.02524  0.37500  0.72476
E12   E   0.02524  0.62500  0.77524
E13   E   0.04094  0.00000  0.75000
E14   E   0.05882  0.49866  0.60110
E15   E   0.05882  0.50134  0.89890
E16   E   0.06618  0.16861  0.72476
E17   E   0.06618  0.83139  0.77524
E18   E   0.08139  0.18382  0.52524
E19   E   0.08139  0.81618  0.97476
E20   E   0.10110  0.44118  0.50134
E21   E   0.10110  0.55882  0.99866
E22   E   0.12366  0.12634  0.62500
E23   E   0.12366  0.12634  0.62500
E24   E   0.12366  0.87366  0.87500
E25   E   0.12500  0.27524  0.52524
E26   E   0.12500  0.37634  0.87366
E27   E   0.12500  0.62366  0.62634
E28   E   0.12500  0.72476  0.97476
E29   E   0.12634  0.37500  0.37634
E30   E   0.12634  0.62500  0.12366
E31   E   0.12634  0.37500  0.37634
E32   E   0.12634  0.62500  0.12366
E33   E   0.14890  0.25134  0.69118
E34   E   0.14890  0.74866  0.80882
E35   E   0.16861  0.27524  0.43382
E36   E   0.16861  0.72476  0.06618
E37   E   0.18382  0.47476  0.41861
E38   E   0.18382  0.52524  0.08139
E39   E   0.19118  0.35110  0.74866
E40   E   0.19118  0.64890  0.75134
E41   E   0.20906  0.50000  0.25000
E42   E   0.22476  0.43382  0.83139
E43   E   0.22476  0.47476  0.62500
E44   E   0.22476  0.52524  0.87500
E45   E   0.22476  0.56618  0.66861
E46   E   0.22476  0.47476  0.62500
E47   E   0.22476  0.52524  0.87500
E48   E   0.24866  0.30882  0.64890
E49   E   0.24866  0.69118  0.85110
E50   E   0.25000  0.20906  0.50000
E51   E   0.25000  0.45906  0.00000
E52   E   0.25000  0.54094  0.50000
E53   E   0.25000  0.79094  0.00000
E54   E   0.25134  0.30882  0.35110
E55   E   0.25134  0.69118  0.14890
E56   E   0.27524  0.43382  0.16861
E57   E   0.27524  0.47476  0.37500
E58   E   0.27524  0.52524  0.12500
E59   E   0.27524  0.56618  0.33139
E60   E   0.29094  0.50000  0.75000
E61   E   0.30882  0.35110  0.25134
E62   E   0.30882  0.64890  0.24866
E63   E   0.31618  0.47476  0.58139
E64   E   0.31618  0.52524  0.91861
E65   E   0.33139  0.27524  0.56618
E66   E   0.33139  0.72476  0.93382
E67   E   0.35110  0.25134  0.30882
E68   E   0.35110  0.74866  0.19118
E69   E   0.37366  0.37500  0.62366
E70   E   0.37366  0.62500  0.87634
E71   E   0.37500  0.27524  0.47476
E72   E   0.37500  0.37634  0.12634
E73   E   0.37500  0.37634  0.12634
E74   E   0.37500  0.62366  0.37366
E75   E   0.37500  0.72476  0.02524
E76   E   0.37500  0.72476  0.02524
E77   E   0.37634  0.12634  0.37500
E78   E   0.37634  0.12634  0.37500
E79   E   0.37634  0.87366  0.12500
E80   E   0.39890  0.44118  0.49866
E81   E   0.39890  0.55882  0.00134
E82   E   0.41861  0.18382  0.47476
E83   E   0.41861  0.81618  0.02524
E84   E   0.43382  0.16861  0.27524
E85   E   0.43382  0.83139  0.22476
E86   E   0.44118  0.49866  0.39890
E87   E   0.44118  0.50134  0.10110
E88   E   0.45906  0.00000  0.25000
E89   E   0.47476  0.37500  0.27524
E90   E   0.47476  0.41861  0.18382
E91   E   0.47476  0.58139  0.31618
E92   E   0.47476  0.62500  0.22476
E93   E   0.47476  0.62500  0.22476
E94   E   0.49866  0.39890  0.44118
E95   E   0.49866  0.60110  0.05882
E96   E   0.50000  0.25000  0.20906
E97   E   0.50000  0.25000  0.54094
E98   E   0.50000  0.75000  0.29094
E99   E   0.50000  0.75000  0.95906
E100  E   0.50134  0.10110  0.44118
E101  E   0.50134  0.89890  0.05882
E102  E   0.52524  0.08139  0.18382
E103  E   0.52524  0.12500  0.27524
E104  E   0.52524  0.87500  0.22476
E105  E   0.52524  0.87500  0.22476
E106  E   0.52524  0.91861  0.31618
E107  E   0.54094  0.50000  0.25000
E108  E   0.55882  0.00134  0.39890
E109  E   0.55882  0.99866  0.10110
E110  E   0.56618  0.33139  0.27524
E111  E   0.56618  0.66861  0.22476
E112  E   0.58139  0.31618  0.47476
E113  E   0.58139  0.68382  0.02524
E114  E   0.60110  0.05882  0.49866
E115  E   0.60110  0.94118  0.00134
E116  E   0.62366  0.37366  0.37500
E117  E   0.62366  0.62634  0.12500
E118  E   0.62500  0.12366  0.12634
E119  E   0.62500  0.12366  0.12634
E120  E   0.62500  0.22476  0.47476
E121  E   0.62500  0.22476  0.47476
E122  E   0.62500  0.77524  0.02524
E123  E   0.62500  0.77524  0.02524
E124  E   0.62500  0.87634  0.37366
E125  E   0.62634  0.12500  0.62366
E126  E   0.62634  0.87500  0.87634
E127  E   0.64890  0.24866  0.30882
E128  E   0.64890  0.75134  0.19118
E129  E   0.66861  0.22476  0.56618
E130  E   0.66861  0.77524  0.93382
E131  E   0.68382  0.02524  0.58139
E132  E   0.68382  0.97476  0.91861
E133  E   0.69118  0.14890  0.25134
E134  E   0.69118  0.85110  0.24866
E135  E   0.70906  0.00000  0.75000
E136  E   0.72476  0.02524  0.37500
E137  E   0.72476  0.02524  0.37500
E138  E   0.72476  0.06618  0.16861
E139  E   0.72476  0.93382  0.33139
E140  E   0.72476  0.97476  0.12500
E141  E   0.74866  0.19118  0.35110
E142  E   0.74866  0.80882  0.14890
E143  E   0.75000  0.04094  0.00000
E144  E   0.75000  0.29094  0.50000
E145  E   0.75000  0.70906  0.00000
E146  E   0.75000  0.95906  0.50000
E147  E   0.75134  0.19118  0.64890
E148  E   0.75134  0.80882  0.85110
E149  E   0.77524  0.02524  0.62500
E150  E   0.77524  0.02524  0.62500
E151  E   0.77524  0.06618  0.83139
E152  E   0.77524  0.93382  0.66861
E153  E   0.77524  0.97476  0.87500
E154  E   0.79094  0.00000  0.25000
E155  E   0.80882  0.14890  0.74866
E156  E   0.80882  0.85110  0.75134
E157  E   0.81618  0.02524  0.41861
E158  E   0.81618  0.97476  0.08139
E159  E   0.83139  0.22476  0.43382
E160  E   0.83139  0.77524  0.06618
E161  E   0.85110  0.24866  0.69118
E162  E   0.85110  0.75134  0.80882
E163  E   0.87366  0.12500  0.37634
E164  E   0.87366  0.87500  0.12366
E165  E   0.87500  0.12366  0.87366
E166  E   0.87500  0.22476  0.52524
E167  E   0.87500  0.22476  0.52524
E168  E   0.87500  0.77524  0.97476
E169  E   0.87500  0.87634  0.62634
E170  E   0.87634  0.37366  0.62500
E171  E   0.87634  0.62634  0.87500
E172  E   0.89890  0.05882  0.50134
E173  E   0.89890  0.94118  0.99866
E174  E   0.91861  0.31618  0.52524
E175  E   0.91861  0.68382  0.97476
E176  E   0.93382  0.33139  0.72476
E177  E   0.93382  0.66861  0.77524
E178  E   0.94118  0.00134  0.60110
E179  E   0.94118  0.99866  0.89890
E180  E   0.95906  0.50000  0.75000
E181  E   0.97476  0.08139  0.81618
E182  E   0.97476  0.12500  0.72476
E183  E   0.97476  0.87500  0.77524
E184  E   0.97476  0.91861  0.68382
E185  E   0.99866  0.10110  0.55882
E186  E   0.99866  0.89890  0.94118
loop_
