data_sxe_Pa-3  hall_number: 501, V_con: 6
_audit_creation_date              2025-03-06
_audit_creation_method            'MOFbuilder_1.0'
_symmetry_space_group_name_H-M    'P1'
_symmetry_Int_Tables_number       1
_symmetry_cell_setting            triclinic
loop_
_symmetry_equiv_pos_as_xyz
  x,y,z
_cell_length_a                    30.5997
_cell_length_b                    30.5997
_cell_length_c                    30.5997
_cell_angle_alpha                 90.0
_cell_angle_beta                  90.0
_cell_angle_gamma                 90.0
loop_
_atom_site_label
_atom_site_type_symbol
_atom_site_fract_x
_atom_site_fract_y
_atom_site_fract_z
V1    V   0.07319  0.73247  0.17129
V2    V   0.07319  0.76753  0.67129
V3    V   0.17129  0.07319  0.73247
V4    V   0.17129  0.42681  0.23247
V5    V   0.23247  0.17129  0.42681
V6    V   0.23247  0.32871  0.92681
V7    V   0.26753  0.67129  0.42681
V8    V   0.26753  0.82871  0.92681
V9    V   0.32871  0.57319  0.73247
V10   V   0.32871  0.92681  0.23247
V11   V   0.42681  0.23247  0.17129
V12   V   0.42681  0.26753  0.67129
V13   V   0.57319  0.73247  0.32871
V14   V   0.57319  0.76753  0.82871
V15   V   0.67129  0.07319  0.76753
V16   V   0.67129  0.42681  0.26753
V17   V   0.73247  0.17129  0.07319
V18   V   0.73247  0.32871  0.57319
V19   V   0.76753  0.67129  0.07319
V20   V   0.76753  0.82871  0.57319
V21   V   0.82871  0.57319  0.76753
V22   V   0.82871  0.92681  0.26753
V23   V   0.92681  0.23247  0.32871
V24   V   0.92681  0.26753  0.82871
E1    E   0.04905  0.17036  0.78059
E2    E   0.04905  0.32964  0.28059
E3    E   0.07964  0.20188  0.37776
E4    E   0.07964  0.29812  0.87776
E5    E   0.12224  0.57964  0.20188
E6    E   0.12224  0.92036  0.70188
E7    E   0.17036  0.70188  0.29905
E8    E   0.17036  0.71941  0.54905
E9    E   0.17036  0.78059  0.04905
E10   E   0.17036  0.79812  0.79905
E11   E   0.20095  0.67036  0.70188
E12   E   0.20095  0.82964  0.20188
E13   E   0.20188  0.12224  0.57964
E14   E   0.20188  0.20095  0.82964
E15   E   0.20188  0.29905  0.32964
E16   E   0.20188  0.37776  0.07964
E17   E   0.21941  0.54905  0.32964
E18   E   0.21941  0.95095  0.82964
E19   E   0.28059  0.04905  0.32964
E20   E   0.28059  0.45095  0.82964
E21   E   0.29812  0.62224  0.57964
E22   E   0.29812  0.70095  0.82964
E23   E   0.29812  0.79905  0.32964
E24   E   0.29812  0.87776  0.07964
E25   E   0.29905  0.17036  0.70188
E26   E   0.29905  0.32964  0.20188
E27   E   0.32964  0.20188  0.29905
E28   E   0.32964  0.21941  0.54905
E29   E   0.32964  0.28059  0.04905
E30   E   0.32964  0.29812  0.79905
E31   E   0.37776  0.07964  0.20188
E32   E   0.37776  0.42036  0.70188
E33   E   0.42036  0.70188  0.37776
E34   E   0.42036  0.79812  0.87776
E35   E   0.45095  0.67036  0.78059
E36   E   0.45095  0.82964  0.28059
E37   E   0.54905  0.17036  0.71941
E38   E   0.54905  0.32964  0.21941
E39   E   0.57964  0.20188  0.12224
E40   E   0.57964  0.29812  0.62224
E41   E   0.62224  0.57964  0.29812
E42   E   0.62224  0.92036  0.79812
E43   E   0.67036  0.70188  0.20095
E44   E   0.67036  0.71941  0.95095
E45   E   0.67036  0.78059  0.45095
E46   E   0.67036  0.79812  0.70095
E47   E   0.70095  0.67036  0.79812
E48   E   0.70095  0.82964  0.29812
E49   E   0.70188  0.12224  0.92036
E50   E   0.70188  0.20095  0.67036
E51   E   0.70188  0.29905  0.17036
E52   E   0.70188  0.37776  0.42036
E53   E   0.71941  0.54905  0.17036
E54   E   0.71941  0.95095  0.67036
E55   E   0.78059  0.04905  0.17036
E56   E   0.78059  0.45095  0.67036
E57   E   0.79812  0.62224  0.92036
E58   E   0.79812  0.70095  0.67036
E59   E   0.79812  0.79905  0.17036
E60   E   0.79812  0.87776  0.42036
E61   E   0.79905  0.17036  0.79812
E62   E   0.79905  0.32964  0.29812
E63   E   0.82964  0.20188  0.20095
E64   E   0.82964  0.21941  0.95095
E65   E   0.82964  0.28059  0.45095
E66   E   0.82964  0.29812  0.70095
E67   E   0.87776  0.07964  0.29812
E68   E   0.87776  0.42036  0.79812
E69   E   0.92036  0.70188  0.12224
E70   E   0.92036  0.79812  0.62224
E71   E   0.95095  0.67036  0.71941
E72   E   0.95095  0.82964  0.21941
loop_
