data_sxf_Pa-3  hall_number: 501, V_con: 6
_audit_creation_date              2025-03-06
_audit_creation_method            'MOFbuilder_1.0'
_symmetry_space_group_name_H-M    'P1'
_symmetry_Int_Tables_number       1
_symmetry_cell_setting            triclinic
loop_
_symmetry_equiv_pos_as_xyz
  x,y,z
_cell_length_a                    29.9816
_cell_length_b                    29.9816
_cell_length_c                    29.9816
_cell_angle_alpha                 90.0
_cell_angle_beta                  90.0
_cell_angle_gamma                 90.0
loop_
_atom_site_label
_atom_site_type_symbol
_atom_site_fract_x
_atom_site_fract_y
_atom_site_fract_z
V1    V   0.04837  0.06182  0.72240
V2    V   0.04837  0.43818  0.22240
V3    V   0.06182  0.72240  0.04837
V4    V   0.06182  0.77760  0.54837
V5    V   0.22240  0.04837  0.43818
V6    V   0.22240  0.45163  0.93818
V7    V   0.27760  0.54837  0.43818
V8    V   0.27760  0.95163  0.93818
V9    V   0.43818  0.22240  0.04837
V10   V   0.43818  0.27760  0.54837
V11   V   0.45163  0.56182  0.72240
V12   V   0.45163  0.93818  0.22240
V13   V   0.54837  0.06182  0.77760
V14   V   0.54837  0.43818  0.27760
V15   V   0.56182  0.72240  0.45163
V16   V   0.56182  0.77760  0.95163
V17   V   0.72240  0.04837  0.06182
V18   V   0.72240  0.45163  0.56182
V19   V   0.77760  0.54837  0.06182
V20   V   0.77760  0.95163  0.56182
V21   V   0.93818  0.22240  0.45163
V22   V   0.93818  0.27760  0.95163
V23   V   0.95163  0.56182  0.77760
V24   V   0.95163  0.93818  0.27760
E1    E   0.00672  0.64211  0.91299
E2    E   0.00672  0.85789  0.41299
E3    E   0.00672  0.66971  0.66299
E4    E   0.00672  0.83029  0.16299
E5    E   0.05510  0.58029  0.13539
E6    E   0.05510  0.91971  0.63539
E7    E   0.08029  0.13539  0.44490
E8    E   0.08029  0.36461  0.94490
E9    E   0.08701  0.50672  0.85789
E10   E   0.08701  0.99328  0.35789
E11   E   0.13539  0.05510  0.58029
E12   E   0.13539  0.44490  0.08029
E13   E   0.14211  0.58701  0.99328
E14   E   0.14211  0.91299  0.49328
E15   E   0.16299  0.00672  0.83029
E16   E   0.16299  0.49328  0.33029
E17   E   0.16971  0.66299  0.49328
E18   E   0.16971  0.83701  0.99328
E19   E   0.33029  0.16299  0.49328
E20   E   0.33029  0.33701  0.99328
E21   E   0.33701  0.50672  0.83029
E22   E   0.33701  0.99328  0.33029
E23   E   0.35789  0.08701  0.99328
E24   E   0.35789  0.41299  0.49328
E25   E   0.36461  0.55510  0.58029
E26   E   0.36461  0.94490  0.08029
E27   E   0.41299  0.00672  0.85789
E28   E   0.41299  0.49328  0.35789
E29   E   0.41971  0.63539  0.44490
E30   E   0.41971  0.86461  0.94490
E31   E   0.44490  0.08029  0.13539
E32   E   0.44490  0.41971  0.63539
E33   E   0.49328  0.14211  0.91299
E34   E   0.49328  0.16971  0.66299
E35   E   0.49328  0.33029  0.16299
E36   E   0.49328  0.35789  0.41299
E37   E   0.50672  0.64211  0.58701
E38   E   0.50672  0.85789  0.08701
E39   E   0.50672  0.66971  0.83701
E40   E   0.50672  0.83029  0.33701
E41   E   0.55510  0.58029  0.36461
E42   E   0.55510  0.91971  0.86461
E43   E   0.58029  0.13539  0.05510
E44   E   0.58029  0.36461  0.55510
E45   E   0.58701  0.50672  0.64211
E46   E   0.58701  0.99328  0.14211
E47   E   0.63539  0.05510  0.91971
E48   E   0.63539  0.44490  0.41971
E49   E   0.64211  0.58701  0.50672
E50   E   0.64211  0.91299  0.00672
E51   E   0.66299  0.00672  0.66971
E52   E   0.66299  0.49328  0.16971
E53   E   0.66971  0.66299  0.00672
E54   E   0.66971  0.83701  0.50672
E55   E   0.83029  0.16299  0.00672
E56   E   0.83029  0.33701  0.50672
E57   E   0.83701  0.50672  0.66971
E58   E   0.83701  0.99328  0.16971
E59   E   0.85789  0.08701  0.50672
E60   E   0.85789  0.41299  0.00672
E61   E   0.86461  0.55510  0.91971
E62   E   0.86461  0.94490  0.41971
E63   E   0.91299  0.00672  0.64211
E64   E   0.91299  0.49328  0.14211
E65   E   0.91971  0.63539  0.05510
E66   E   0.91971  0.86461  0.55510
E67   E   0.94490  0.08029  0.36461
E68   E   0.94490  0.41971  0.86461
E69   E   0.99328  0.16971  0.83701
E70   E   0.99328  0.33029  0.33701
E71   E   0.99328  0.14211  0.58701
E72   E   0.99328  0.35789  0.08701
loop_
