data_sxk_I-43d  hall_number: 516, V_con: 6
_audit_creation_date              2025-03-06
_audit_creation_method            'MOFbuilder_1.0'
_symmetry_space_group_name_H-M    'P1'
_symmetry_Int_Tables_number       1
_symmetry_cell_setting            triclinic
loop_
_symmetry_equiv_pos_as_xyz
  x,y,z
_cell_length_a                    37.0779
_cell_length_b                    37.0779
_cell_length_c                    37.0779
_cell_angle_alpha                 90.0
_cell_angle_beta                  90.0
_cell_angle_gamma                 90.0
loop_
_atom_site_label
_atom_site_type_symbol
_atom_site_fract_x
_atom_site_fract_y
_atom_site_fract_z
V1    V   0.02965  0.11845  0.68554
V2    V   0.02965  0.88155  0.81446
V3    V   0.06446  0.13155  0.27965
V4    V   0.06446  0.86845  0.22035
V5    V   0.11845  0.31446  0.47035
V6    V   0.11845  0.68554  0.02965
V7    V   0.13155  0.27965  0.06446
V8    V   0.13155  0.72035  0.43554
V9    V   0.18554  0.47035  0.88155
V10   V   0.18554  0.52965  0.61845
V11   V   0.22035  0.06446  0.86845
V12   V   0.22035  0.93554  0.63155
V13   V   0.27965  0.06446  0.13155
V14   V   0.27965  0.93554  0.36845
V15   V   0.31446  0.47035  0.11845
V16   V   0.31446  0.52965  0.38155
V17   V   0.36845  0.27965  0.93554
V18   V   0.36845  0.72035  0.56446
V19   V   0.38155  0.31446  0.52965
V20   V   0.38155  0.68554  0.97035
V21   V   0.43554  0.13155  0.72035
V22   V   0.43554  0.86845  0.77965
V23   V   0.47035  0.11845  0.31446
V24   V   0.47035  0.88155  0.18554
V25   V   0.52965  0.38155  0.31446
V26   V   0.52965  0.61845  0.18554
V27   V   0.56446  0.36845  0.72035
V28   V   0.56446  0.63155  0.77965
V29   V   0.61845  0.18554  0.52965
V30   V   0.61845  0.81446  0.97035
V31   V   0.63155  0.22035  0.93554
V32   V   0.63155  0.77965  0.56446
V33   V   0.68554  0.02965  0.11845
V34   V   0.68554  0.97035  0.38155
V35   V   0.72035  0.43554  0.13155
V36   V   0.72035  0.56446  0.36845
V37   V   0.77965  0.43554  0.86845
V38   V   0.77965  0.56446  0.63155
V39   V   0.81446  0.02965  0.88155
V40   V   0.81446  0.97035  0.61845
V41   V   0.86845  0.22035  0.06446
V42   V   0.86845  0.77965  0.43554
V43   V   0.88155  0.18554  0.47035
V44   V   0.88155  0.81446  0.02965
V45   V   0.93554  0.36845  0.27965
V46   V   0.93554  0.63155  0.22035
V47   V   0.97035  0.38155  0.68554
V48   V   0.97035  0.61845  0.81446
E1    E   0.00000  0.25000  0.06446
E2    E   0.00000  0.25000  0.27965
E3    E   0.00000  0.25000  0.47035
E4    E   0.00000  0.25000  0.68554
E5    E   0.00000  0.75000  0.02965
E6    E   0.00000  0.75000  0.22035
E7    E   0.00000  0.75000  0.43554
E8    E   0.00000  0.75000  0.81446
E9    E   0.02699  0.34145  0.37500
E10   E   0.02699  0.65855  0.12500
E11   E   0.02965  0.00000  0.75000
E12   E   0.04440  0.34801  0.57795
E13   E   0.04440  0.65199  0.92205
E14   E   0.06446  0.00000  0.25000
E15   E   0.07795  0.45560  0.65199
E16   E   0.07795  0.54440  0.84801
E17   E   0.09145  0.22301  0.37500
E18   E   0.09145  0.77699  0.12500
E19   E   0.09801  0.20560  0.17205
E20   E   0.09801  0.79440  0.32795
E21   E   0.12500  0.02699  0.65855
E22   E   0.12500  0.09145  0.77699
E23   E   0.12500  0.90855  0.72301
E24   E   0.12500  0.97301  0.84145
E25   E   0.15199  0.42205  0.54440
E26   E   0.15199  0.57795  0.95560
E27   E   0.15855  0.37500  0.97301
E28   E   0.15855  0.62500  0.52699
E29   E   0.17205  0.09801  0.20560
E30   E   0.17205  0.90199  0.29440
E31   E   0.18554  0.50000  0.75000
E32   E   0.20560  0.17205  0.09801
E33   E   0.20560  0.82795  0.40199
E34   E   0.22035  0.00000  0.75000
E35   E   0.22301  0.37500  0.09145
E36   E   0.22301  0.62500  0.40855
E37   E   0.25000  0.06446  0.00000
E38   E   0.25000  0.27965  0.00000
E39   E   0.25000  0.31446  0.50000
E40   E   0.25000  0.47035  0.00000
E41   E   0.25000  0.52965  0.50000
E42   E   0.25000  0.68554  0.00000
E43   E   0.25000  0.72035  0.50000
E44   E   0.25000  0.93554  0.50000
E45   E   0.27699  0.37500  0.90855
E46   E   0.27699  0.62500  0.59145
E47   E   0.27965  0.00000  0.25000
E48   E   0.29440  0.17205  0.90199
E49   E   0.29440  0.82795  0.59801
E50   E   0.31446  0.50000  0.25000
E51   E   0.32795  0.09801  0.79440
E52   E   0.32795  0.90199  0.70560
E53   E   0.34145  0.37500  0.02699
E54   E   0.34145  0.62500  0.47301
E55   E   0.34801  0.42205  0.45560
E56   E   0.34801  0.57795  0.04440
E57   E   0.37500  0.02699  0.34145
E58   E   0.37500  0.09145  0.22301
E59   E   0.37500  0.90855  0.27699
E60   E   0.37500  0.97301  0.15855
E61   E   0.40199  0.20560  0.82795
E62   E   0.40199  0.79440  0.67205
E63   E   0.40855  0.22301  0.62500
E64   E   0.40855  0.77699  0.87500
E65   E   0.42205  0.45560  0.34801
E66   E   0.42205  0.54440  0.15199
E67   E   0.43554  0.00000  0.75000
E68   E   0.45560  0.34801  0.42205
E69   E   0.45560  0.65199  0.07795
E70   E   0.47035  0.00000  0.25000
E71   E   0.47301  0.34145  0.62500
E72   E   0.47301  0.65855  0.87500
E73   E   0.50000  0.25000  0.31446
E74   E   0.50000  0.25000  0.52965
E75   E   0.50000  0.25000  0.72035
E76   E   0.50000  0.25000  0.93554
E77   E   0.50000  0.75000  0.18554
E78   E   0.50000  0.75000  0.56446
E79   E   0.50000  0.75000  0.77965
E80   E   0.50000  0.75000  0.97035
E81   E   0.52699  0.15855  0.62500
E82   E   0.52699  0.84145  0.87500
E83   E   0.52965  0.50000  0.25000
E84   E   0.54440  0.15199  0.42205
E85   E   0.54440  0.84801  0.07795
E86   E   0.56446  0.50000  0.75000
E87   E   0.57795  0.04440  0.34801
E88   E   0.57795  0.95560  0.15199
E89   E   0.59145  0.27699  0.62500
E90   E   0.59145  0.72301  0.87500
E91   E   0.59801  0.29440  0.82795
E92   E   0.59801  0.70560  0.67205
E93   E   0.62500  0.40855  0.22301
E94   E   0.62500  0.47301  0.34145
E95   E   0.62500  0.52699  0.15855
E96   E   0.62500  0.59145  0.27699
E97   E   0.65199  0.07795  0.45560
E98   E   0.65199  0.92205  0.04440
E99   E   0.65855  0.12500  0.02699
E100  E   0.65855  0.87500  0.47301
E101  E   0.67205  0.40199  0.79440
E102  E   0.67205  0.59801  0.70560
E103  E   0.68554  0.00000  0.25000
E104  E   0.70560  0.32795  0.90199
E105  E   0.70560  0.67205  0.59801
E106  E   0.72035  0.50000  0.25000
E107  E   0.72301  0.12500  0.90855
E108  E   0.72301  0.87500  0.59145
E109  E   0.75000  0.02965  0.00000
E110  E   0.75000  0.18554  0.50000
E111  E   0.75000  0.22035  0.00000
E112  E   0.75000  0.43554  0.00000
E113  E   0.75000  0.56446  0.50000
E114  E   0.75000  0.77965  0.50000
E115  E   0.75000  0.81446  0.00000
E116  E   0.75000  0.97035  0.50000
E117  E   0.77699  0.12500  0.09145
E118  E   0.77699  0.87500  0.40855
E119  E   0.77965  0.50000  0.75000
E120  E   0.79440  0.32795  0.09801
E121  E   0.79440  0.67205  0.40199
E122  E   0.81446  0.00000  0.75000
E123  E   0.82795  0.40199  0.20560
E124  E   0.82795  0.59801  0.29440
E125  E   0.84145  0.12500  0.97301
E126  E   0.84145  0.87500  0.52699
E127  E   0.84801  0.07795  0.54440
E128  E   0.84801  0.92205  0.95560
E129  E   0.87500  0.40855  0.77699
E130  E   0.87500  0.47301  0.65855
E131  E   0.87500  0.52699  0.84145
E132  E   0.87500  0.59145  0.72301
E133  E   0.90199  0.29440  0.17205
E134  E   0.90199  0.70560  0.32795
E135  E   0.90855  0.27699  0.37500
E136  E   0.90855  0.72301  0.12500
E137  E   0.92205  0.04440  0.65199
E138  E   0.92205  0.95560  0.84801
E139  E   0.93554  0.50000  0.25000
E140  E   0.95560  0.15199  0.57795
E141  E   0.95560  0.84801  0.92205
E142  E   0.97035  0.50000  0.75000
E143  E   0.97301  0.15855  0.37500
E144  E   0.97301  0.84145  0.12500
loop_
