data_sxl_Fd-3c:2  hall_number: 528, V_con: 6
_audit_creation_date              2025-03-06
_audit_creation_method            'MOFbuilder_1.0'
_symmetry_space_group_name_H-M    'P1'
_symmetry_Int_Tables_number       1
_symmetry_cell_setting            triclinic
loop_
_symmetry_equiv_pos_as_xyz
  x,y,z
_cell_length_a                    64.6104
_cell_length_b                    64.6104
_cell_length_c                    64.6104
_cell_angle_alpha                 90.0
_cell_angle_beta                  90.0
_cell_angle_gamma                 90.0
loop_
_atom_site_label
_atom_site_type_symbol
_atom_site_fract_x
_atom_site_fract_y
_atom_site_fract_z
V1    V   0.05216  0.09887  0.92972
V2    V   0.05216  0.15113  0.32028
V3    V   0.05216  0.32028  0.65113
V4    V   0.05216  0.42972  0.09887
V5    V   0.05216  0.59887  0.42972
V6    V   0.05216  0.65113  0.82028
V7    V   0.05216  0.82028  0.15113
V8    V   0.05216  0.92972  0.59887
V9    V   0.07028  0.30216  0.34887
V10   V   0.07028  0.34887  0.80216
V11   V   0.07028  0.40113  0.94784
V12   V   0.07028  0.44784  0.40113
V13   V   0.07028  0.80216  0.84887
V14   V   0.07028  0.84887  0.30216
V15   V   0.07028  0.90113  0.44784
V16   V   0.07028  0.94784  0.90113
V17   V   0.09887  0.05216  0.42972
V18   V   0.09887  0.19784  0.82028
V19   V   0.09887  0.32028  0.19784
V20   V   0.09887  0.42972  0.55216
V21   V   0.09887  0.55216  0.92972
V22   V   0.09887  0.69784  0.32028
V23   V   0.09887  0.82028  0.69784
V24   V   0.09887  0.92972  0.05216
V25   V   0.15113  0.05216  0.82028
V26   V   0.15113  0.19784  0.42972
V27   V   0.15113  0.32028  0.05216
V28   V   0.15113  0.42972  0.69784
V29   V   0.15113  0.55216  0.32028
V30   V   0.15113  0.69784  0.92972
V31   V   0.15113  0.82028  0.55216
V32   V   0.15113  0.92972  0.19784
V33   V   0.17972  0.30216  0.90113
V34   V   0.17972  0.34887  0.44784
V35   V   0.17972  0.40113  0.30216
V36   V   0.17972  0.44784  0.84887
V37   V   0.17972  0.80216  0.40113
V38   V   0.17972  0.84887  0.94784
V39   V   0.17972  0.90113  0.80216
V40   V   0.17972  0.94784  0.34887
V41   V   0.19784  0.09887  0.32028
V42   V   0.19784  0.15113  0.92972
V43   V   0.19784  0.32028  0.59887
V44   V   0.19784  0.42972  0.15113
V45   V   0.19784  0.59887  0.82028
V46   V   0.19784  0.65113  0.42972
V47   V   0.19784  0.82028  0.09887
V48   V   0.19784  0.92972  0.65113
V49   V   0.30216  0.07028  0.84887
V50   V   0.30216  0.17972  0.40113
V51   V   0.30216  0.34887  0.07028
V52   V   0.30216  0.40113  0.67972
V53   V   0.30216  0.57028  0.34887
V54   V   0.30216  0.67972  0.90113
V55   V   0.30216  0.84887  0.57028
V56   V   0.30216  0.90113  0.17972
V57   V   0.32028  0.05216  0.15113
V58   V   0.32028  0.09887  0.69784
V59   V   0.32028  0.15113  0.55216
V60   V   0.32028  0.19784  0.09887
V61   V   0.32028  0.55216  0.65113
V62   V   0.32028  0.59887  0.19784
V63   V   0.32028  0.65113  0.05216
V64   V   0.32028  0.69784  0.59887
V65   V   0.34887  0.07028  0.30216
V66   V   0.34887  0.17972  0.94784
V67   V   0.34887  0.30216  0.57028
V68   V   0.34887  0.44784  0.17972
V69   V   0.34887  0.57028  0.80216
V70   V   0.34887  0.67972  0.44784
V71   V   0.34887  0.80216  0.07028
V72   V   0.34887  0.94784  0.67972
V73   V   0.40113  0.07028  0.44784
V74   V   0.40113  0.17972  0.80216
V75   V   0.40113  0.30216  0.17972
V76   V   0.40113  0.44784  0.57028
V77   V   0.40113  0.57028  0.94784
V78   V   0.40113  0.67972  0.30216
V79   V   0.40113  0.80216  0.67972
V80   V   0.40113  0.94784  0.07028
V81   V   0.42972  0.05216  0.59887
V82   V   0.42972  0.09887  0.05216
V83   V   0.42972  0.15113  0.19784
V84   V   0.42972  0.19784  0.65113
V85   V   0.42972  0.55216  0.09887
V86   V   0.42972  0.59887  0.55216
V87   V   0.42972  0.65113  0.69784
V88   V   0.42972  0.69784  0.15113
V89   V   0.44784  0.07028  0.90113
V90   V   0.44784  0.17972  0.34887
V91   V   0.44784  0.34887  0.67972
V92   V   0.44784  0.40113  0.07028
V93   V   0.44784  0.57028  0.40113
V94   V   0.44784  0.67972  0.84887
V95   V   0.44784  0.84887  0.17972
V96   V   0.44784  0.90113  0.57028
V97   V   0.55216  0.09887  0.42972
V98   V   0.55216  0.15113  0.82028
V99   V   0.55216  0.32028  0.15113
V100  V   0.55216  0.42972  0.59887
V101  V   0.55216  0.59887  0.92972
V102  V   0.55216  0.65113  0.32028
V103  V   0.55216  0.82028  0.65113
V104  V   0.55216  0.92972  0.09887
V105  V   0.57028  0.30216  0.84887
V106  V   0.57028  0.34887  0.30216
V107  V   0.57028  0.40113  0.44784
V108  V   0.57028  0.44784  0.90113
V109  V   0.57028  0.80216  0.34887
V110  V   0.57028  0.84887  0.80216
V111  V   0.57028  0.90113  0.94784
V112  V   0.57028  0.94784  0.40113
V113  V   0.59887  0.05216  0.92972
V114  V   0.59887  0.19784  0.32028
V115  V   0.59887  0.32028  0.69784
V116  V   0.59887  0.42972  0.05216
V117  V   0.59887  0.55216  0.42972
V118  V   0.59887  0.69784  0.82028
V119  V   0.59887  0.82028  0.19784
V120  V   0.59887  0.92972  0.55216
V121  V   0.65113  0.05216  0.32028
V122  V   0.65113  0.19784  0.92972
V123  V   0.65113  0.32028  0.55216
V124  V   0.65113  0.42972  0.19784
V125  V   0.65113  0.55216  0.82028
V126  V   0.65113  0.69784  0.42972
V127  V   0.65113  0.82028  0.05216
V128  V   0.65113  0.92972  0.69784
V129  V   0.67972  0.30216  0.40113
V130  V   0.67972  0.34887  0.94784
V131  V   0.67972  0.40113  0.80216
V132  V   0.67972  0.44784  0.34887
V133  V   0.67972  0.80216  0.90113
V134  V   0.67972  0.84887  0.44784
V135  V   0.67972  0.90113  0.30216
V136  V   0.67972  0.94784  0.84887
V137  V   0.69784  0.09887  0.82028
V138  V   0.69784  0.15113  0.42972
V139  V   0.69784  0.32028  0.09887
V140  V   0.69784  0.42972  0.65113
V141  V   0.69784  0.59887  0.32028
V142  V   0.69784  0.65113  0.92972
V143  V   0.69784  0.82028  0.59887
V144  V   0.69784  0.92972  0.15113
V145  V   0.80216  0.07028  0.34887
V146  V   0.80216  0.17972  0.90113
V147  V   0.80216  0.34887  0.57028
V148  V   0.80216  0.40113  0.17972
V149  V   0.80216  0.57028  0.84887
V150  V   0.80216  0.67972  0.40113
V151  V   0.80216  0.84887  0.07028
V152  V   0.80216  0.90113  0.67972
V153  V   0.82028  0.05216  0.65113
V154  V   0.82028  0.09887  0.19784
V155  V   0.82028  0.15113  0.05216
V156  V   0.82028  0.19784  0.59887
V157  V   0.82028  0.55216  0.15113
V158  V   0.82028  0.59887  0.69784
V159  V   0.82028  0.65113  0.55216
V160  V   0.82028  0.69784  0.09887
V161  V   0.84887  0.07028  0.80216
V162  V   0.84887  0.17972  0.44784
V163  V   0.84887  0.30216  0.07028
V164  V   0.84887  0.44784  0.67972
V165  V   0.84887  0.57028  0.30216
V166  V   0.84887  0.67972  0.94784
V167  V   0.84887  0.80216  0.57028
V168  V   0.84887  0.94784  0.17972
V169  V   0.90113  0.07028  0.94784
V170  V   0.90113  0.17972  0.30216
V171  V   0.90113  0.30216  0.67972
V172  V   0.90113  0.44784  0.07028
V173  V   0.90113  0.57028  0.44784
V174  V   0.90113  0.67972  0.80216
V175  V   0.90113  0.80216  0.17972
V176  V   0.90113  0.94784  0.57028
V177  V   0.92972  0.05216  0.09887
V178  V   0.92972  0.09887  0.55216
V179  V   0.92972  0.15113  0.69784
V180  V   0.92972  0.19784  0.15113
V181  V   0.92972  0.55216  0.59887
V182  V   0.92972  0.59887  0.05216
V183  V   0.92972  0.65113  0.19784
V184  V   0.92972  0.69784  0.65113
V185  V   0.94784  0.07028  0.40113
V186  V   0.94784  0.17972  0.84887
V187  V   0.94784  0.34887  0.17972
V188  V   0.94784  0.40113  0.57028
V189  V   0.94784  0.57028  0.90113
V190  V   0.94784  0.67972  0.34887
V191  V   0.94784  0.84887  0.67972
V192  V   0.94784  0.90113  0.07028
E1    E   0.00000  0.11071  0.36071
E2    E   0.00000  0.11071  0.36071
E3    E   0.00000  0.13929  0.88929
E4    E   0.00000  0.13929  0.88929
E5    E   0.00000  0.36071  0.61071
E6    E   0.00000  0.38929  0.13929
E7    E   0.00000  0.38929  0.13929
E8    E   0.00000  0.61071  0.86071
E9    E   0.00000  0.63929  0.38929
E10   E   0.00000  0.86071  0.11071
E11   E   0.00000  0.86071  0.11071
E12   E   0.00000  0.88929  0.63929
E13   E   0.02336  0.06122  0.41542
E14   E   0.02336  0.18878  0.83458
E15   E   0.02336  0.33458  0.18878
E16   E   0.02336  0.41542  0.56122
E17   E   0.02336  0.56122  0.91542
E18   E   0.02336  0.68878  0.33458
E19   E   0.02336  0.83458  0.68878
E20   E   0.02336  0.91542  0.06122
E21   E   0.06122  0.02336  0.91542
E22   E   0.06122  0.22664  0.33458
E23   E   0.06122  0.33458  0.72664
E24   E   0.06122  0.41542  0.02336
E25   E   0.06122  0.52336  0.41542
E26   E   0.06122  0.72664  0.83458
E27   E   0.06122  0.83458  0.22664
E28   E   0.06122  0.91542  0.52336
E29   E   0.07028  0.37500  0.37500
E30   E   0.07028  0.37500  0.87500
E31   E   0.07028  0.87500  0.37500
E32   E   0.07028  0.87500  0.87500
E33   E   0.07551  0.10164  0.37500
E34   E   0.07551  0.14836  0.87500
E35   E   0.07551  0.37500  0.14836
E36   E   0.07551  0.37500  0.60164
E37   E   0.07551  0.60164  0.87500
E38   E   0.07551  0.64836  0.37500
E39   E   0.07551  0.87500  0.10164
E40   E   0.07551  0.87500  0.64836
E41   E   0.08458  0.27336  0.81122
E42   E   0.08458  0.31122  0.27336
E43   E   0.08458  0.43878  0.47664
E44   E   0.08458  0.47664  0.93878
E45   E   0.08458  0.77336  0.31122
E46   E   0.08458  0.81122  0.77336
E47   E   0.08458  0.93878  0.97664
E48   E   0.08458  0.97664  0.43878
E49   E   0.10164  0.07551  0.87500
E50   E   0.10164  0.17449  0.37500
E51   E   0.10164  0.37500  0.07551
E52   E   0.10164  0.37500  0.67449
E53   E   0.10164  0.57551  0.37500
E54   E   0.10164  0.67449  0.87500
E55   E   0.10164  0.87500  0.17449
E56   E   0.10164  0.87500  0.57551
E57   E   0.11071  0.00000  0.86071
E58   E   0.11071  0.25000  0.38929
E59   E   0.11071  0.36071  0.00000
E60   E   0.11071  0.38929  0.75000
E61   E   0.11071  0.50000  0.36071
E62   E   0.11071  0.75000  0.88929
E63   E   0.11071  0.86071  0.50000
E64   E   0.11071  0.88929  0.25000
E65   E   0.11071  0.00000  0.86071
E66   E   0.11071  0.25000  0.38929
E67   E   0.11071  0.36071  0.00000
E68   E   0.11071  0.38929  0.75000
E69   E   0.11071  0.50000  0.36071
E70   E   0.11071  0.75000  0.88929
E71   E   0.11071  0.86071  0.50000
E72   E   0.11071  0.88929  0.25000
E73   E   0.12500  0.12500  0.32028
E74   E   0.12500  0.12500  0.42972
E75   E   0.12500  0.12500  0.82028
E76   E   0.12500  0.12500  0.92972
E77   E   0.12500  0.32028  0.12500
E78   E   0.12500  0.32028  0.62500
E79   E   0.12500  0.32551  0.39836
E80   E   0.12500  0.32551  0.85164
E81   E   0.12500  0.35164  0.32551
E82   E   0.12500  0.35164  0.92449
E83   E   0.12500  0.39836  0.42449
E84   E   0.12500  0.39836  0.82551
E85   E   0.12500  0.42449  0.35164
E86   E   0.12500  0.42449  0.89836
E87   E   0.12500  0.42972  0.12500
E88   E   0.12500  0.42972  0.62500
E89   E   0.12500  0.62500  0.32028
E90   E   0.12500  0.62500  0.42972
E91   E   0.12500  0.62500  0.82028
E92   E   0.12500  0.62500  0.92972
E93   E   0.12500  0.82028  0.12500
E94   E   0.12500  0.82028  0.62500
E95   E   0.12500  0.82551  0.35164
E96   E   0.12500  0.82551  0.89836
E97   E   0.12500  0.85164  0.42449
E98   E   0.12500  0.85164  0.82551
E99   E   0.12500  0.89836  0.32551
E100  E   0.12500  0.89836  0.92449
E101  E   0.12500  0.92449  0.39836
E102  E   0.12500  0.92449  0.85164
E103  E   0.12500  0.92972  0.12500
E104  E   0.12500  0.92972  0.62500
E105  E   0.13929  0.00000  0.38929
E106  E   0.13929  0.25000  0.86071
E107  E   0.13929  0.36071  0.25000
E108  E   0.13929  0.38929  0.50000
E109  E   0.13929  0.50000  0.88929
E110  E   0.13929  0.75000  0.36071
E111  E   0.13929  0.86071  0.75000
E112  E   0.13929  0.88929  0.00000
E113  E   0.13929  0.00000  0.38929
E114  E   0.13929  0.25000  0.86071
E115  E   0.13929  0.36071  0.25000
E116  E   0.13929  0.38929  0.50000
E117  E   0.13929  0.50000  0.88929
E118  E   0.13929  0.75000  0.36071
E119  E   0.13929  0.86071  0.75000
E120  E   0.13929  0.88929  0.00000
E121  E   0.14836  0.07551  0.37500
E122  E   0.14836  0.17449  0.87500
E123  E   0.14836  0.37500  0.17449
E124  E   0.14836  0.37500  0.57551
E125  E   0.14836  0.57551  0.87500
E126  E   0.14836  0.67449  0.37500
E127  E   0.14836  0.87500  0.07551
E128  E   0.14836  0.87500  0.67449
E129  E   0.16542  0.27336  0.43878
E130  E   0.16542  0.31122  0.97664
E131  E   0.16542  0.43878  0.77336
E132  E   0.16542  0.47664  0.31122
E133  E   0.16542  0.77336  0.93878
E134  E   0.16542  0.81122  0.47664
E135  E   0.16542  0.93878  0.27336
E136  E   0.16542  0.97664  0.81122
E137  E   0.17449  0.10164  0.87500
E138  E   0.17449  0.14836  0.37500
E139  E   0.17449  0.37500  0.10164
E140  E   0.17449  0.37500  0.64836
E141  E   0.17449  0.60164  0.37500
E142  E   0.17449  0.64836  0.87500
E143  E   0.17449  0.87500  0.14836
E144  E   0.17449  0.87500  0.60164
E145  E   0.17972  0.37500  0.37500
E146  E   0.17972  0.37500  0.87500
E147  E   0.17972  0.87500  0.37500
E148  E   0.17972  0.87500  0.87500
E149  E   0.18878  0.02336  0.33458
E150  E   0.18878  0.22664  0.91542
E151  E   0.18878  0.33458  0.52336
E152  E   0.18878  0.41542  0.22664
E153  E   0.18878  0.52336  0.83458
E154  E   0.18878  0.72664  0.41542
E155  E   0.18878  0.83458  0.02336
E156  E   0.18878  0.91542  0.72664
E157  E   0.22664  0.06122  0.83458
E158  E   0.22664  0.18878  0.41542
E159  E   0.22664  0.33458  0.06122
E160  E   0.22664  0.41542  0.68878
E161  E   0.22664  0.56122  0.33458
E162  E   0.22664  0.68878  0.91542
E163  E   0.22664  0.83458  0.56122
E164  E   0.22664  0.91542  0.18878
E165  E   0.25000  0.11071  0.88929
E166  E   0.25000  0.11071  0.88929
E167  E   0.25000  0.13929  0.36071
E168  E   0.25000  0.13929  0.36071
E169  E   0.25000  0.36071  0.63929
E170  E   0.25000  0.38929  0.11071
E171  E   0.25000  0.38929  0.11071
E172  E   0.25000  0.61071  0.38929
E173  E   0.25000  0.63929  0.86071
E174  E   0.25000  0.86071  0.13929
E175  E   0.25000  0.86071  0.13929
E176  E   0.25000  0.88929  0.61071
E177  E   0.27336  0.08458  0.31122
E178  E   0.27336  0.16542  0.93878
E179  E   0.27336  0.31122  0.58458
E180  E   0.27336  0.43878  0.16542
E181  E   0.27336  0.58458  0.81122
E182  E   0.27336  0.66542  0.43878
E183  E   0.27336  0.81122  0.08458
E184  E   0.27336  0.93878  0.66542
E185  E   0.31122  0.08458  0.77336
E186  E   0.31122  0.16542  0.47664
E187  E   0.31122  0.27336  0.08458
E188  E   0.31122  0.47664  0.66542
E189  E   0.31122  0.58458  0.27336
E190  E   0.31122  0.66542  0.97664
E191  E   0.31122  0.77336  0.58458
E192  E   0.31122  0.97664  0.16542
E193  E   0.32028  0.12500  0.12500
E194  E   0.32028  0.12500  0.62500
E195  E   0.32028  0.62500  0.12500
E196  E   0.32028  0.62500  0.62500
E197  E   0.32551  0.12500  0.35164
E198  E   0.32551  0.12500  0.89836
E199  E   0.32551  0.35164  0.62500
E200  E   0.32551  0.39836  0.12500
E201  E   0.32551  0.62500  0.39836
E202  E   0.32551  0.62500  0.85164
E203  E   0.32551  0.85164  0.12500
E204  E   0.32551  0.89836  0.62500
E205  E   0.33458  0.02336  0.68878
E206  E   0.33458  0.06122  0.22664
E207  E   0.33458  0.18878  0.02336
E208  E   0.33458  0.22664  0.56122
E209  E   0.33458  0.52336  0.18878
E210  E   0.33458  0.56122  0.72664
E211  E   0.33458  0.68878  0.52336
E212  E   0.33458  0.72664  0.06122
E213  E   0.35164  0.12500  0.42449
E214  E   0.35164  0.12500  0.82551
E215  E   0.35164  0.32551  0.12500
E216  E   0.35164  0.42449  0.62500
E217  E   0.35164  0.62500  0.32551
E218  E   0.35164  0.62500  0.92449
E219  E   0.35164  0.82551  0.62500
E220  E   0.35164  0.92449  0.12500
E221  E   0.36071  0.00000  0.11071
E222  E   0.36071  0.00000  0.11071
E223  E   0.36071  0.11071  0.50000
E224  E   0.36071  0.11071  0.50000
E225  E   0.36071  0.13929  0.75000
E226  E   0.36071  0.13929  0.75000
E227  E   0.36071  0.25000  0.13929
E228  E   0.36071  0.25000  0.13929
E229  E   0.36071  0.50000  0.61071
E230  E   0.36071  0.61071  0.00000
E231  E   0.36071  0.63929  0.25000
E232  E   0.36071  0.75000  0.63929
E233  E   0.37500  0.07028  0.37500
E234  E   0.37500  0.07028  0.87500
E235  E   0.37500  0.07551  0.10164
E236  E   0.37500  0.07551  0.64836
E237  E   0.37500  0.10164  0.17449
E238  E   0.37500  0.10164  0.57551
E239  E   0.37500  0.14836  0.07551
E240  E   0.37500  0.14836  0.67449
E241  E   0.37500  0.17449  0.14836
E242  E   0.37500  0.17449  0.60164
E243  E   0.37500  0.17972  0.37500
E244  E   0.37500  0.17972  0.87500
E245  E   0.37500  0.37500  0.07028
E246  E   0.37500  0.37500  0.17972
E247  E   0.37500  0.37500  0.57028
E248  E   0.37500  0.37500  0.67972
E249  E   0.37500  0.57028  0.37500
E250  E   0.37500  0.57028  0.87500
E251  E   0.37500  0.57551  0.14836
E252  E   0.37500  0.57551  0.60164
E253  E   0.37500  0.60164  0.07551
E254  E   0.37500  0.60164  0.67449
E255  E   0.37500  0.64836  0.17449
E256  E   0.37500  0.64836  0.57551
E257  E   0.37500  0.67449  0.10164
E258  E   0.37500  0.67449  0.64836
E259  E   0.37500  0.67972  0.37500
E260  E   0.37500  0.67972  0.87500
E261  E   0.37500  0.87500  0.07028
E262  E   0.37500  0.87500  0.17972
E263  E   0.37500  0.87500  0.57028
E264  E   0.37500  0.87500  0.67972
E265  E   0.38929  0.00000  0.63929
E266  E   0.38929  0.11071  0.25000
E267  E   0.38929  0.11071  0.25000
E268  E   0.38929  0.13929  0.00000
E269  E   0.38929  0.13929  0.00000
E270  E   0.38929  0.25000  0.61071
E271  E   0.38929  0.50000  0.13929
E272  E   0.38929  0.50000  0.13929
E273  E   0.38929  0.61071  0.75000
E274  E   0.38929  0.63929  0.50000
E275  E   0.38929  0.75000  0.11071
E276  E   0.38929  0.75000  0.11071
E277  E   0.39836  0.12500  0.32551
E278  E   0.39836  0.12500  0.92449
E279  E   0.39836  0.32551  0.62500
E280  E   0.39836  0.42449  0.12500
E281  E   0.39836  0.62500  0.42449
E282  E   0.39836  0.62500  0.82551
E283  E   0.39836  0.82551  0.12500
E284  E   0.39836  0.92449  0.62500
E285  E   0.41542  0.02336  0.06122
E286  E   0.41542  0.06122  0.52336
E287  E   0.41542  0.18878  0.72664
E288  E   0.41542  0.22664  0.18878
E289  E   0.41542  0.52336  0.56122
E290  E   0.41542  0.56122  0.02336
E291  E   0.41542  0.68878  0.22664
E292  E   0.41542  0.72664  0.68878
E293  E   0.42449  0.12500  0.39836
E294  E   0.42449  0.12500  0.85164
E295  E   0.42449  0.35164  0.12500
E296  E   0.42449  0.39836  0.62500
E297  E   0.42449  0.62500  0.35164
E298  E   0.42449  0.62500  0.89836
E299  E   0.42449  0.85164  0.62500
E300  E   0.42449  0.89836  0.12500
E301  E   0.42972  0.12500  0.12500
E302  E   0.42972  0.12500  0.62500
E303  E   0.42972  0.62500  0.12500
E304  E   0.42972  0.62500  0.62500
E305  E   0.43878  0.08458  0.97664
E306  E   0.43878  0.16542  0.27336
E307  E   0.43878  0.27336  0.66542
E308  E   0.43878  0.47664  0.08458
E309  E   0.43878  0.58458  0.47664
E310  E   0.43878  0.66542  0.77336
E311  E   0.43878  0.77336  0.16542
E312  E   0.43878  0.97664  0.58458
E313  E   0.47664  0.08458  0.43878
E314  E   0.47664  0.16542  0.81122
E315  E   0.47664  0.31122  0.16542
E316  E   0.47664  0.43878  0.58458
E317  E   0.47664  0.58458  0.93878
E318  E   0.47664  0.66542  0.31122
E319  E   0.47664  0.81122  0.66542
E320  E   0.47664  0.93878  0.08458
E321  E   0.50000  0.11071  0.86071
E322  E   0.50000  0.11071  0.86071
E323  E   0.50000  0.13929  0.38929
E324  E   0.50000  0.13929  0.38929
E325  E   0.50000  0.36071  0.11071
E326  E   0.50000  0.36071  0.11071
E327  E   0.50000  0.38929  0.63929
E328  E   0.50000  0.61071  0.36071
E329  E   0.50000  0.63929  0.88929
E330  E   0.50000  0.86071  0.61071
E331  E   0.50000  0.88929  0.13929
E332  E   0.50000  0.88929  0.13929
E333  E   0.52336  0.06122  0.91542
E334  E   0.52336  0.18878  0.33458
E335  E   0.52336  0.33458  0.68878
E336  E   0.52336  0.41542  0.06122
E337  E   0.52336  0.56122  0.41542
E338  E   0.52336  0.68878  0.83458
E339  E   0.52336  0.83458  0.18878
E340  E   0.52336  0.91542  0.56122
E341  E   0.56122  0.02336  0.41542
E342  E   0.56122  0.22664  0.83458
E343  E   0.56122  0.33458  0.22664
E344  E   0.56122  0.41542  0.52336
E345  E   0.56122  0.52336  0.91542
E346  E   0.56122  0.72664  0.33458
E347  E   0.56122  0.83458  0.72664
E348  E   0.56122  0.91542  0.02336
E349  E   0.57028  0.37500  0.37500
E350  E   0.57028  0.37500  0.87500
E351  E   0.57028  0.87500  0.37500
E352  E   0.57028  0.87500  0.87500
E353  E   0.57551  0.10164  0.87500
E354  E   0.57551  0.14836  0.37500
E355  E   0.57551  0.37500  0.10164
E356  E   0.57551  0.37500  0.64836
E357  E   0.57551  0.60164  0.37500
E358  E   0.57551  0.64836  0.87500
E359  E   0.57551  0.87500  0.14836
E360  E   0.57551  0.87500  0.60164
E361  E   0.58458  0.27336  0.31122
E362  E   0.58458  0.31122  0.77336
E363  E   0.58458  0.43878  0.97664
E364  E   0.58458  0.47664  0.43878
E365  E   0.58458  0.77336  0.81122
E366  E   0.58458  0.81122  0.27336
E367  E   0.58458  0.93878  0.47664
E368  E   0.58458  0.97664  0.93878
E369  E   0.60164  0.07551  0.37500
E370  E   0.60164  0.17449  0.87500
E371  E   0.60164  0.37500  0.17449
E372  E   0.60164  0.37500  0.57551
E373  E   0.60164  0.57551  0.87500
E374  E   0.60164  0.67449  0.37500
E375  E   0.60164  0.87500  0.07551
E376  E   0.60164  0.87500  0.67449
E377  E   0.61071  0.00000  0.36071
E378  E   0.61071  0.25000  0.88929
E379  E   0.61071  0.36071  0.50000
E380  E   0.61071  0.38929  0.25000
E381  E   0.61071  0.50000  0.86071
E382  E   0.61071  0.75000  0.38929
E383  E   0.61071  0.86071  0.00000
E384  E   0.61071  0.88929  0.75000
E385  E   0.62500  0.12500  0.32028
E386  E   0.62500  0.12500  0.42972
E387  E   0.62500  0.12500  0.82028
E388  E   0.62500  0.12500  0.92972
E389  E   0.62500  0.32028  0.12500
E390  E   0.62500  0.32028  0.62500
E391  E   0.62500  0.32551  0.35164
E392  E   0.62500  0.32551  0.89836
E393  E   0.62500  0.35164  0.42449
E394  E   0.62500  0.35164  0.82551
E395  E   0.62500  0.39836  0.32551
E396  E   0.62500  0.39836  0.92449
E397  E   0.62500  0.42449  0.39836
E398  E   0.62500  0.42449  0.85164
E399  E   0.62500  0.42972  0.12500
E400  E   0.62500  0.42972  0.62500
E401  E   0.62500  0.62500  0.32028
E402  E   0.62500  0.62500  0.42972
E403  E   0.62500  0.62500  0.82028
E404  E   0.62500  0.62500  0.92972
E405  E   0.62500  0.82028  0.12500
E406  E   0.62500  0.82028  0.62500
E407  E   0.62500  0.82551  0.39836
E408  E   0.62500  0.82551  0.85164
E409  E   0.62500  0.85164  0.32551
E410  E   0.62500  0.85164  0.92449
E411  E   0.62500  0.89836  0.42449
E412  E   0.62500  0.89836  0.82551
E413  E   0.62500  0.92449  0.35164
E414  E   0.62500  0.92449  0.89836
E415  E   0.62500  0.92972  0.12500
E416  E   0.62500  0.92972  0.62500
E417  E   0.63929  0.00000  0.88929
E418  E   0.63929  0.25000  0.36071
E419  E   0.63929  0.36071  0.75000
E420  E   0.63929  0.38929  0.00000
E421  E   0.63929  0.50000  0.38929
E422  E   0.63929  0.75000  0.86071
E423  E   0.63929  0.86071  0.25000
E424  E   0.63929  0.88929  0.50000
E425  E   0.64836  0.07551  0.87500
E426  E   0.64836  0.17449  0.37500
E427  E   0.64836  0.37500  0.07551
E428  E   0.64836  0.37500  0.67449
E429  E   0.64836  0.57551  0.37500
E430  E   0.64836  0.67449  0.87500
E431  E   0.64836  0.87500  0.17449
E432  E   0.64836  0.87500  0.57551
E433  E   0.66542  0.27336  0.93878
E434  E   0.66542  0.31122  0.47664
E435  E   0.66542  0.43878  0.27336
E436  E   0.66542  0.47664  0.81122
E437  E   0.66542  0.77336  0.43878
E438  E   0.66542  0.81122  0.97664
E439  E   0.66542  0.93878  0.77336
E440  E   0.66542  0.97664  0.31122
E441  E   0.67449  0.10164  0.37500
E442  E   0.67449  0.14836  0.87500
E443  E   0.67449  0.37500  0.14836
E444  E   0.67449  0.37500  0.60164
E445  E   0.67449  0.60164  0.87500
E446  E   0.67449  0.64836  0.37500
E447  E   0.67449  0.87500  0.10164
E448  E   0.67449  0.87500  0.64836
E449  E   0.67972  0.37500  0.37500
E450  E   0.67972  0.37500  0.87500
E451  E   0.67972  0.87500  0.37500
E452  E   0.67972  0.87500  0.87500
E453  E   0.68878  0.02336  0.83458
E454  E   0.68878  0.22664  0.41542
E455  E   0.68878  0.33458  0.02336
E456  E   0.68878  0.41542  0.72664
E457  E   0.68878  0.52336  0.33458
E458  E   0.68878  0.72664  0.91542
E459  E   0.68878  0.83458  0.52336
E460  E   0.68878  0.91542  0.22664
E461  E   0.72664  0.06122  0.33458
E462  E   0.72664  0.18878  0.91542
E463  E   0.72664  0.33458  0.56122
E464  E   0.72664  0.41542  0.18878
E465  E   0.72664  0.56122  0.83458
E466  E   0.72664  0.68878  0.41542
E467  E   0.72664  0.83458  0.06122
E468  E   0.72664  0.91542  0.68878
E469  E   0.75000  0.11071  0.38929
E470  E   0.75000  0.11071  0.38929
E471  E   0.75000  0.13929  0.86071
E472  E   0.75000  0.13929  0.86071
E473  E   0.75000  0.36071  0.13929
E474  E   0.75000  0.36071  0.13929
E475  E   0.75000  0.38929  0.61071
E476  E   0.75000  0.61071  0.88929
E477  E   0.75000  0.63929  0.36071
E478  E   0.75000  0.86071  0.63929
E479  E   0.75000  0.88929  0.11071
E480  E   0.75000  0.88929  0.11071
E481  E   0.77336  0.08458  0.81122
E482  E   0.77336  0.16542  0.43878
E483  E   0.77336  0.31122  0.08458
E484  E   0.77336  0.43878  0.66542
E485  E   0.77336  0.58458  0.31122
E486  E   0.77336  0.66542  0.93878
E487  E   0.77336  0.81122  0.58458
E488  E   0.77336  0.93878  0.16542
E489  E   0.81122  0.08458  0.27336
E490  E   0.81122  0.16542  0.97664
E491  E   0.81122  0.27336  0.58458
E492  E   0.81122  0.47664  0.16542
E493  E   0.81122  0.58458  0.77336
E494  E   0.81122  0.66542  0.47664
E495  E   0.81122  0.77336  0.08458
E496  E   0.81122  0.97664  0.66542
E497  E   0.82028  0.12500  0.12500
E498  E   0.82028  0.12500  0.62500
E499  E   0.82028  0.62500  0.12500
E500  E   0.82028  0.62500  0.62500
E501  E   0.82551  0.12500  0.39836
E502  E   0.82551  0.12500  0.85164
E503  E   0.82551  0.35164  0.12500
E504  E   0.82551  0.39836  0.62500
E505  E   0.82551  0.62500  0.35164
E506  E   0.82551  0.62500  0.89836
E507  E   0.82551  0.85164  0.62500
E508  E   0.82551  0.89836  0.12500
E509  E   0.83458  0.02336  0.18878
E510  E   0.83458  0.06122  0.72664
E511  E   0.83458  0.18878  0.52336
E512  E   0.83458  0.22664  0.06122
E513  E   0.83458  0.52336  0.68878
E514  E   0.83458  0.56122  0.22664
E515  E   0.83458  0.68878  0.02336
E516  E   0.83458  0.72664  0.56122
E517  E   0.85164  0.12500  0.32551
E518  E   0.85164  0.12500  0.92449
E519  E   0.85164  0.32551  0.62500
E520  E   0.85164  0.42449  0.12500
E521  E   0.85164  0.62500  0.42449
E522  E   0.85164  0.62500  0.82551
E523  E   0.85164  0.82551  0.12500
E524  E   0.85164  0.92449  0.62500
E525  E   0.86071  0.00000  0.61071
E526  E   0.86071  0.11071  0.00000
E527  E   0.86071  0.11071  0.00000
E528  E   0.86071  0.13929  0.25000
E529  E   0.86071  0.13929  0.25000
E530  E   0.86071  0.25000  0.63929
E531  E   0.86071  0.50000  0.11071
E532  E   0.86071  0.50000  0.11071
E533  E   0.86071  0.61071  0.50000
E534  E   0.86071  0.63929  0.75000
E535  E   0.86071  0.75000  0.13929
E536  E   0.86071  0.75000  0.13929
E537  E   0.87500  0.07028  0.37500
E538  E   0.87500  0.07028  0.87500
E539  E   0.87500  0.07551  0.14836
E540  E   0.87500  0.07551  0.60164
E541  E   0.87500  0.10164  0.07551
E542  E   0.87500  0.10164  0.67449
E543  E   0.87500  0.14836  0.17449
E544  E   0.87500  0.14836  0.57551
E545  E   0.87500  0.17449  0.10164
E546  E   0.87500  0.17449  0.64836
E547  E   0.87500  0.17972  0.37500
E548  E   0.87500  0.17972  0.87500
E549  E   0.87500  0.37500  0.07028
E550  E   0.87500  0.37500  0.17972
E551  E   0.87500  0.37500  0.57028
E552  E   0.87500  0.37500  0.67972
E553  E   0.87500  0.57028  0.37500
E554  E   0.87500  0.57028  0.87500
E555  E   0.87500  0.57551  0.10164
E556  E   0.87500  0.57551  0.64836
E557  E   0.87500  0.60164  0.17449
E558  E   0.87500  0.60164  0.57551
E559  E   0.87500  0.64836  0.07551
E560  E   0.87500  0.64836  0.67449
E561  E   0.87500  0.67449  0.14836
E562  E   0.87500  0.67449  0.60164
E563  E   0.87500  0.67972  0.37500
E564  E   0.87500  0.67972  0.87500
E565  E   0.87500  0.87500  0.07028
E566  E   0.87500  0.87500  0.17972
E567  E   0.87500  0.87500  0.57028
E568  E   0.87500  0.87500  0.67972
E569  E   0.88929  0.00000  0.13929
E570  E   0.88929  0.00000  0.13929
E571  E   0.88929  0.11071  0.75000
E572  E   0.88929  0.11071  0.75000
E573  E   0.88929  0.13929  0.50000
E574  E   0.88929  0.13929  0.50000
E575  E   0.88929  0.25000  0.11071
E576  E   0.88929  0.25000  0.11071
E577  E   0.88929  0.50000  0.63929
E578  E   0.88929  0.61071  0.25000
E579  E   0.88929  0.63929  0.00000
E580  E   0.88929  0.75000  0.61071
E581  E   0.89836  0.12500  0.42449
E582  E   0.89836  0.12500  0.82551
E583  E   0.89836  0.32551  0.12500
E584  E   0.89836  0.42449  0.62500
E585  E   0.89836  0.62500  0.32551
E586  E   0.89836  0.62500  0.92449
E587  E   0.89836  0.82551  0.62500
E588  E   0.89836  0.92449  0.12500
E589  E   0.91542  0.02336  0.56122
E590  E   0.91542  0.06122  0.02336
E591  E   0.91542  0.18878  0.22664
E592  E   0.91542  0.22664  0.68878
E593  E   0.91542  0.52336  0.06122
E594  E   0.91542  0.56122  0.52336
E595  E   0.91542  0.68878  0.72664
E596  E   0.91542  0.72664  0.18878
E597  E   0.92449  0.12500  0.35164
E598  E   0.92449  0.12500  0.89836
E599  E   0.92449  0.35164  0.62500
E600  E   0.92449  0.39836  0.12500
E601  E   0.92449  0.62500  0.39836
E602  E   0.92449  0.62500  0.85164
E603  E   0.92449  0.85164  0.12500
E604  E   0.92449  0.89836  0.62500
E605  E   0.92972  0.12500  0.12500
E606  E   0.92972  0.12500  0.62500
E607  E   0.92972  0.62500  0.12500
E608  E   0.92972  0.62500  0.62500
E609  E   0.93878  0.08458  0.47664
E610  E   0.93878  0.16542  0.77336
E611  E   0.93878  0.27336  0.16542
E612  E   0.93878  0.47664  0.58458
E613  E   0.93878  0.58458  0.97664
E614  E   0.93878  0.66542  0.27336
E615  E   0.93878  0.77336  0.66542
E616  E   0.93878  0.97664  0.08458
E617  E   0.97664  0.08458  0.93878
E618  E   0.97664  0.16542  0.31122
E619  E   0.97664  0.31122  0.66542
E620  E   0.97664  0.43878  0.08458
E621  E   0.97664  0.58458  0.43878
E622  E   0.97664  0.66542  0.81122
E623  E   0.97664  0.81122  0.16542
E624  E   0.97664  0.93878  0.58458
loop_
