data_sxm_Fd-3c:2  hall_number: 528, V_con: 6
_audit_creation_date              2025-03-06
_audit_creation_method            'MOFbuilder_1.0'
_symmetry_space_group_name_H-M    'P1'
_symmetry_Int_Tables_number       1
_symmetry_cell_setting            triclinic
loop_
_symmetry_equiv_pos_as_xyz
  x,y,z
_cell_length_a                    57.8168
_cell_length_b                    57.8168
_cell_length_c                    57.8168
_cell_angle_alpha                 90.0
_cell_angle_beta                  90.0
_cell_angle_gamma                 90.0
loop_
_atom_site_label
_atom_site_type_symbol
_atom_site_fract_x
_atom_site_fract_y
_atom_site_fract_z
V1    V   0.02920  0.28950  0.86200
V2    V   0.02920  0.36200  0.28950
V3    V   0.02920  0.38800  0.46050
V4    V   0.02920  0.46050  0.88800
V5    V   0.02920  0.78950  0.36200
V6    V   0.02920  0.86200  0.78950
V7    V   0.02920  0.88800  0.96050
V8    V   0.02920  0.96050  0.38800
V9    V   0.03950  0.11200  0.47080
V10   V   0.03950  0.13800  0.77920
V11   V   0.03950  0.27920  0.13800
V12   V   0.03950  0.47080  0.61200
V13   V   0.03950  0.61200  0.97080
V14   V   0.03950  0.63800  0.27920
V15   V   0.03950  0.77920  0.63800
V16   V   0.03950  0.97080  0.11200
V17   V   0.11200  0.03950  0.97080
V18   V   0.11200  0.21050  0.27920
V19   V   0.11200  0.27920  0.71050
V20   V   0.11200  0.47080  0.03950
V21   V   0.11200  0.53950  0.47080
V22   V   0.11200  0.71050  0.77920
V23   V   0.11200  0.77920  0.21050
V24   V   0.11200  0.97080  0.53950
V25   V   0.13800  0.03950  0.27920
V26   V   0.13800  0.21050  0.97080
V27   V   0.13800  0.27920  0.53950
V28   V   0.13800  0.47080  0.21050
V29   V   0.13800  0.53950  0.77920
V30   V   0.13800  0.71050  0.47080
V31   V   0.13800  0.77920  0.03950
V32   V   0.13800  0.97080  0.71050
V33   V   0.21050  0.11200  0.77920
V34   V   0.21050  0.13800  0.47080
V35   V   0.21050  0.27920  0.11200
V36   V   0.21050  0.47080  0.63800
V37   V   0.21050  0.61200  0.27920
V38   V   0.21050  0.63800  0.97080
V39   V   0.21050  0.77920  0.61200
V40   V   0.21050  0.97080  0.13800
V41   V   0.22080  0.28950  0.38800
V42   V   0.22080  0.36200  0.96050
V43   V   0.22080  0.38800  0.78950
V44   V   0.22080  0.46050  0.36200
V45   V   0.22080  0.78950  0.88800
V46   V   0.22080  0.86200  0.46050
V47   V   0.22080  0.88800  0.28950
V48   V   0.22080  0.96050  0.86200
V49   V   0.27920  0.03950  0.63800
V50   V   0.27920  0.11200  0.21050
V51   V   0.27920  0.13800  0.03950
V52   V   0.27920  0.21050  0.61200
V53   V   0.27920  0.53950  0.13800
V54   V   0.27920  0.61200  0.71050
V55   V   0.27920  0.63800  0.53950
V56   V   0.27920  0.71050  0.11200
V57   V   0.28950  0.02920  0.36200
V58   V   0.28950  0.22080  0.88800
V59   V   0.28950  0.36200  0.52920
V60   V   0.28950  0.38800  0.22080
V61   V   0.28950  0.52920  0.86200
V62   V   0.28950  0.72080  0.38800
V63   V   0.28950  0.86200  0.02920
V64   V   0.28950  0.88800  0.72080
V65   V   0.36200  0.02920  0.78950
V66   V   0.36200  0.22080  0.46050
V67   V   0.36200  0.28950  0.02920
V68   V   0.36200  0.46050  0.72080
V69   V   0.36200  0.52920  0.28950
V70   V   0.36200  0.72080  0.96050
V71   V   0.36200  0.78950  0.52920
V72   V   0.36200  0.96050  0.22080
V73   V   0.38800  0.02920  0.96050
V74   V   0.38800  0.22080  0.28950
V75   V   0.38800  0.28950  0.72080
V76   V   0.38800  0.46050  0.02920
V77   V   0.38800  0.52920  0.46050
V78   V   0.38800  0.72080  0.78950
V79   V   0.38800  0.78950  0.22080
V80   V   0.38800  0.96050  0.52920
V81   V   0.46050  0.02920  0.38800
V82   V   0.46050  0.22080  0.86200
V83   V   0.46050  0.36200  0.22080
V84   V   0.46050  0.38800  0.52920
V85   V   0.46050  0.52920  0.88800
V86   V   0.46050  0.72080  0.36200
V87   V   0.46050  0.86200  0.72080
V88   V   0.46050  0.88800  0.02920
V89   V   0.47080  0.03950  0.11200
V90   V   0.47080  0.11200  0.53950
V91   V   0.47080  0.13800  0.71050
V92   V   0.47080  0.21050  0.13800
V93   V   0.47080  0.53950  0.61200
V94   V   0.47080  0.61200  0.03950
V95   V   0.47080  0.63800  0.21050
V96   V   0.47080  0.71050  0.63800
V97   V   0.52920  0.28950  0.36200
V98   V   0.52920  0.36200  0.78950
V99   V   0.52920  0.38800  0.96050
V100  V   0.52920  0.46050  0.38800
V101  V   0.52920  0.78950  0.86200
V102  V   0.52920  0.86200  0.28950
V103  V   0.52920  0.88800  0.46050
V104  V   0.52920  0.96050  0.88800
V105  V   0.53950  0.11200  0.97080
V106  V   0.53950  0.13800  0.27920
V107  V   0.53950  0.27920  0.63800
V108  V   0.53950  0.47080  0.11200
V109  V   0.53950  0.61200  0.47080
V110  V   0.53950  0.63800  0.77920
V111  V   0.53950  0.77920  0.13800
V112  V   0.53950  0.97080  0.61200
V113  V   0.61200  0.03950  0.47080
V114  V   0.61200  0.21050  0.77920
V115  V   0.61200  0.27920  0.21050
V116  V   0.61200  0.47080  0.53950
V117  V   0.61200  0.53950  0.97080
V118  V   0.61200  0.71050  0.27920
V119  V   0.61200  0.77920  0.71050
V120  V   0.61200  0.97080  0.03950
V121  V   0.63800  0.03950  0.77920
V122  V   0.63800  0.21050  0.47080
V123  V   0.63800  0.27920  0.03950
V124  V   0.63800  0.47080  0.71050
V125  V   0.63800  0.53950  0.27920
V126  V   0.63800  0.71050  0.97080
V127  V   0.63800  0.77920  0.53950
V128  V   0.63800  0.97080  0.21050
V129  V   0.71050  0.11200  0.27920
V130  V   0.71050  0.13800  0.97080
V131  V   0.71050  0.27920  0.61200
V132  V   0.71050  0.47080  0.13800
V133  V   0.71050  0.61200  0.77920
V134  V   0.71050  0.63800  0.47080
V135  V   0.71050  0.77920  0.11200
V136  V   0.71050  0.97080  0.63800
V137  V   0.72080  0.28950  0.88800
V138  V   0.72080  0.36200  0.46050
V139  V   0.72080  0.38800  0.28950
V140  V   0.72080  0.46050  0.86200
V141  V   0.72080  0.78950  0.38800
V142  V   0.72080  0.86200  0.96050
V143  V   0.72080  0.88800  0.78950
V144  V   0.72080  0.96050  0.36200
V145  V   0.77920  0.03950  0.13800
V146  V   0.77920  0.11200  0.71050
V147  V   0.77920  0.13800  0.53950
V148  V   0.77920  0.21050  0.11200
V149  V   0.77920  0.53950  0.63800
V150  V   0.77920  0.61200  0.21050
V151  V   0.77920  0.63800  0.03950
V152  V   0.77920  0.71050  0.61200
V153  V   0.78950  0.02920  0.86200
V154  V   0.78950  0.22080  0.38800
V155  V   0.78950  0.36200  0.02920
V156  V   0.78950  0.38800  0.72080
V157  V   0.78950  0.52920  0.36200
V158  V   0.78950  0.72080  0.88800
V159  V   0.78950  0.86200  0.52920
V160  V   0.78950  0.88800  0.22080
V161  V   0.86200  0.02920  0.28950
V162  V   0.86200  0.22080  0.96050
V163  V   0.86200  0.28950  0.52920
V164  V   0.86200  0.46050  0.22080
V165  V   0.86200  0.52920  0.78950
V166  V   0.86200  0.72080  0.46050
V167  V   0.86200  0.78950  0.02920
V168  V   0.86200  0.96050  0.72080
V169  V   0.88800  0.02920  0.46050
V170  V   0.88800  0.22080  0.78950
V171  V   0.88800  0.28950  0.22080
V172  V   0.88800  0.46050  0.52920
V173  V   0.88800  0.52920  0.96050
V174  V   0.88800  0.72080  0.28950
V175  V   0.88800  0.78950  0.72080
V176  V   0.88800  0.96050  0.02920
V177  V   0.96050  0.02920  0.88800
V178  V   0.96050  0.22080  0.36200
V179  V   0.96050  0.36200  0.72080
V180  V   0.96050  0.38800  0.02920
V181  V   0.96050  0.52920  0.38800
V182  V   0.96050  0.72080  0.86200
V183  V   0.96050  0.86200  0.22080
V184  V   0.96050  0.88800  0.52920
V185  V   0.97080  0.03950  0.61200
V186  V   0.97080  0.11200  0.03950
V187  V   0.97080  0.13800  0.21050
V188  V   0.97080  0.21050  0.63800
V189  V   0.97080  0.53950  0.11200
V190  V   0.97080  0.61200  0.53950
V191  V   0.97080  0.63800  0.71050
V192  V   0.97080  0.71050  0.13800
E1    E   0.00000  0.08360  0.83360
E2    E   0.00000  0.08360  0.83360
E3    E   0.00000  0.16640  0.41640
E4    E   0.00000  0.33360  0.08360
E5    E   0.00000  0.33360  0.08360
E6    E   0.00000  0.41640  0.66640
E7    E   0.00000  0.58360  0.33360
E8    E   0.00000  0.66640  0.91640
E9    E   0.00000  0.83360  0.58360
E10   E   0.00000  0.91640  0.16640
E11   E   0.00515  0.04140  0.07575
E12   E   0.00515  0.07575  0.54140
E13   E   0.00515  0.17425  0.70860
E14   E   0.00515  0.20860  0.17425
E15   E   0.00515  0.54140  0.57575
E16   E   0.00515  0.57575  0.04140
E17   E   0.00515  0.67425  0.20860
E18   E   0.00515  0.70860  0.67425
E19   E   0.02920  0.37500  0.37500
E20   E   0.02920  0.37500  0.87500
E21   E   0.02920  0.87500  0.37500
E22   E   0.02920  0.87500  0.87500
E23   E   0.03435  0.03625  0.42940
E24   E   0.03435  0.21375  0.82060
E25   E   0.03435  0.32060  0.21375
E26   E   0.03435  0.42940  0.53625
E27   E   0.03435  0.53625  0.92940
E28   E   0.03435  0.71375  0.32060
E29   E   0.03435  0.82060  0.71375
E30   E   0.03435  0.92940  0.03625
E31   E   0.03625  0.03435  0.92940
E32   E   0.03625  0.21565  0.32060
E33   E   0.03625  0.32060  0.71565
E34   E   0.03625  0.42940  0.03435
E35   E   0.03625  0.53435  0.42940
E36   E   0.03625  0.71565  0.82060
E37   E   0.03625  0.82060  0.21565
E38   E   0.03625  0.92940  0.53435
E39   E   0.04140  0.00515  0.57575
E40   E   0.04140  0.07575  0.00515
E41   E   0.04140  0.17425  0.24485
E42   E   0.04140  0.24485  0.67425
E43   E   0.04140  0.50515  0.07575
E44   E   0.04140  0.57575  0.50515
E45   E   0.04140  0.67425  0.74485
E46   E   0.04140  0.74485  0.17425
E47   E   0.07060  0.28435  0.78625
E48   E   0.07060  0.28625  0.28435
E49   E   0.07060  0.46375  0.46565
E50   E   0.07060  0.46565  0.96375
E51   E   0.07060  0.78435  0.28625
E52   E   0.07060  0.78625  0.78435
E53   E   0.07060  0.96375  0.96565
E54   E   0.07060  0.96565  0.46375
E55   E   0.07575  0.00515  0.04140
E56   E   0.07575  0.04140  0.50515
E57   E   0.07575  0.20860  0.74485
E58   E   0.07575  0.24485  0.20860
E59   E   0.07575  0.50515  0.54140
E60   E   0.07575  0.54140  0.00515
E61   E   0.07575  0.70860  0.24485
E62   E   0.07575  0.74485  0.70860
E63   E   0.08360  0.00000  0.33360
E64   E   0.08360  0.25000  0.91640
E65   E   0.08360  0.33360  0.50000
E66   E   0.08360  0.41640  0.25000
E67   E   0.08360  0.50000  0.83360
E68   E   0.08360  0.75000  0.41640
E69   E   0.08360  0.83360  0.00000
E70   E   0.08360  0.91640  0.75000
E71   E   0.08360  0.00000  0.33360
E72   E   0.08360  0.25000  0.91640
E73   E   0.08360  0.33360  0.50000
E74   E   0.08360  0.41640  0.25000
E75   E   0.08360  0.50000  0.83360
E76   E   0.08360  0.75000  0.41640
E77   E   0.08360  0.83360  0.00000
E78   E   0.08360  0.91640  0.75000
E79   E   0.12500  0.12500  0.27920
E80   E   0.12500  0.12500  0.47080
E81   E   0.12500  0.12500  0.77920
E82   E   0.12500  0.12500  0.97080
E83   E   0.12500  0.27920  0.12500
E84   E   0.12500  0.27920  0.62500
E85   E   0.12500  0.47080  0.12500
E86   E   0.12500  0.47080  0.62500
E87   E   0.12500  0.62500  0.27920
E88   E   0.12500  0.62500  0.47080
E89   E   0.12500  0.62500  0.77920
E90   E   0.12500  0.62500  0.97080
E91   E   0.12500  0.77920  0.12500
E92   E   0.12500  0.77920  0.62500
E93   E   0.12500  0.97080  0.12500
E94   E   0.12500  0.97080  0.62500
E95   E   0.16640  0.00000  0.91640
E96   E   0.16640  0.25000  0.33360
E97   E   0.16640  0.33360  0.75000
E98   E   0.16640  0.41640  0.00000
E99   E   0.16640  0.50000  0.41640
E100  E   0.16640  0.75000  0.83360
E101  E   0.16640  0.83360  0.25000
E102  E   0.16640  0.91640  0.50000
E103  E   0.17425  0.00515  0.20860
E104  E   0.17425  0.04140  0.74485
E105  E   0.17425  0.20860  0.50515
E106  E   0.17425  0.24485  0.04140
E107  E   0.17425  0.50515  0.70860
E108  E   0.17425  0.54140  0.24485
E109  E   0.17425  0.70860  0.00515
E110  E   0.17425  0.74485  0.54140
E111  E   0.17940  0.28435  0.46375
E112  E   0.17940  0.28625  0.96565
E113  E   0.17940  0.46375  0.78435
E114  E   0.17940  0.46565  0.28625
E115  E   0.17940  0.78435  0.96375
E116  E   0.17940  0.78625  0.46565
E117  E   0.17940  0.96375  0.28435
E118  E   0.17940  0.96565  0.78625
E119  E   0.20860  0.00515  0.67425
E120  E   0.20860  0.07575  0.24485
E121  E   0.20860  0.17425  0.00515
E122  E   0.20860  0.24485  0.57575
E123  E   0.20860  0.50515  0.17425
E124  E   0.20860  0.57575  0.74485
E125  E   0.20860  0.67425  0.50515
E126  E   0.20860  0.74485  0.07575
E127  E   0.21375  0.03435  0.32060
E128  E   0.21375  0.21565  0.92940
E129  E   0.21375  0.32060  0.53435
E130  E   0.21375  0.42940  0.21565
E131  E   0.21375  0.53435  0.82060
E132  E   0.21375  0.71565  0.42940
E133  E   0.21375  0.82060  0.03435
E134  E   0.21375  0.92940  0.71565
E135  E   0.21565  0.03625  0.82060
E136  E   0.21565  0.21375  0.42940
E137  E   0.21565  0.32060  0.03625
E138  E   0.21565  0.42940  0.71375
E139  E   0.21565  0.53625  0.32060
E140  E   0.21565  0.71375  0.92940
E141  E   0.21565  0.82060  0.53625
E142  E   0.21565  0.92940  0.21375
E143  E   0.22080  0.37500  0.37500
E144  E   0.22080  0.37500  0.87500
E145  E   0.22080  0.87500  0.37500
E146  E   0.22080  0.87500  0.87500
E147  E   0.24485  0.04140  0.17425
E148  E   0.24485  0.07575  0.70860
E149  E   0.24485  0.17425  0.54140
E150  E   0.24485  0.20860  0.07575
E151  E   0.24485  0.54140  0.67425
E152  E   0.24485  0.57575  0.20860
E153  E   0.24485  0.67425  0.04140
E154  E   0.24485  0.70860  0.57575
E155  E   0.25000  0.08360  0.41640
E156  E   0.25000  0.08360  0.41640
E157  E   0.25000  0.16640  0.83360
E158  E   0.25000  0.33360  0.16640
E159  E   0.25000  0.41640  0.58360
E160  E   0.25000  0.58360  0.91640
E161  E   0.25000  0.66640  0.33360
E162  E   0.25000  0.83360  0.66640
E163  E   0.25000  0.91640  0.08360
E164  E   0.25000  0.91640  0.08360
E165  E   0.25515  0.29140  0.92425
E166  E   0.25515  0.32575  0.45860
E167  E   0.25515  0.42425  0.29140
E168  E   0.25515  0.45860  0.82575
E169  E   0.25515  0.79140  0.42425
E170  E   0.25515  0.82575  0.95860
E171  E   0.25515  0.92425  0.79140
E172  E   0.25515  0.95860  0.32575
E173  E   0.27920  0.12500  0.12500
E174  E   0.27920  0.12500  0.62500
E175  E   0.27920  0.62500  0.12500
E176  E   0.27920  0.62500  0.62500
E177  E   0.28435  0.07060  0.28625
E178  E   0.28435  0.17940  0.96375
E179  E   0.28435  0.28625  0.57060
E180  E   0.28435  0.46375  0.17940
E181  E   0.28435  0.57060  0.78625
E182  E   0.28435  0.67940  0.46375
E183  E   0.28435  0.78625  0.07060
E184  E   0.28435  0.96375  0.67940
E185  E   0.28625  0.07060  0.78435
E186  E   0.28625  0.17940  0.46565
E187  E   0.28625  0.28435  0.07060
E188  E   0.28625  0.46565  0.67940
E189  E   0.28625  0.57060  0.28435
E190  E   0.28625  0.67940  0.96565
E191  E   0.28625  0.78435  0.57060
E192  E   0.28625  0.96565  0.17940
E193  E   0.29140  0.25515  0.42425
E194  E   0.29140  0.32575  0.99485
E195  E   0.29140  0.42425  0.75515
E196  E   0.29140  0.49485  0.32575
E197  E   0.29140  0.75515  0.92425
E198  E   0.29140  0.82575  0.49485
E199  E   0.29140  0.92425  0.25515
E200  E   0.29140  0.99485  0.82575
E201  E   0.32060  0.03435  0.71375
E202  E   0.32060  0.03625  0.21565
E203  E   0.32060  0.21375  0.03435
E204  E   0.32060  0.21565  0.53625
E205  E   0.32060  0.53435  0.21375
E206  E   0.32060  0.53625  0.71565
E207  E   0.32060  0.71375  0.53435
E208  E   0.32060  0.71565  0.03625
E209  E   0.32575  0.25515  0.95860
E210  E   0.32575  0.29140  0.49485
E211  E   0.32575  0.45860  0.25515
E212  E   0.32575  0.49485  0.79140
E213  E   0.32575  0.75515  0.45860
E214  E   0.32575  0.79140  0.99485
E215  E   0.32575  0.95860  0.75515
E216  E   0.32575  0.99485  0.29140
E217  E   0.33360  0.00000  0.58360
E218  E   0.33360  0.08360  0.00000
E219  E   0.33360  0.08360  0.00000
E220  E   0.33360  0.16640  0.25000
E221  E   0.33360  0.25000  0.66640
E222  E   0.33360  0.50000  0.08360
E223  E   0.33360  0.50000  0.08360
E224  E   0.33360  0.58360  0.50000
E225  E   0.33360  0.66640  0.75000
E226  E   0.33360  0.75000  0.16640
E227  E   0.37500  0.02920  0.37500
E228  E   0.37500  0.02920  0.87500
E229  E   0.37500  0.22080  0.37500
E230  E   0.37500  0.22080  0.87500
E231  E   0.37500  0.37500  0.02920
E232  E   0.37500  0.37500  0.22080
E233  E   0.37500  0.37500  0.52920
E234  E   0.37500  0.37500  0.72080
E235  E   0.37500  0.52920  0.37500
E236  E   0.37500  0.52920  0.87500
E237  E   0.37500  0.72080  0.37500
E238  E   0.37500  0.72080  0.87500
E239  E   0.37500  0.87500  0.02920
E240  E   0.37500  0.87500  0.22080
E241  E   0.37500  0.87500  0.52920
E242  E   0.37500  0.87500  0.72080
E243  E   0.41640  0.00000  0.16640
E244  E   0.41640  0.08360  0.75000
E245  E   0.41640  0.08360  0.75000
E246  E   0.41640  0.16640  0.50000
E247  E   0.41640  0.25000  0.08360
E248  E   0.41640  0.25000  0.08360
E249  E   0.41640  0.50000  0.66640
E250  E   0.41640  0.58360  0.25000
E251  E   0.41640  0.66640  0.00000
E252  E   0.41640  0.75000  0.58360
E253  E   0.42425  0.25515  0.79140
E254  E   0.42425  0.29140  0.25515
E255  E   0.42425  0.45860  0.49485
E256  E   0.42425  0.49485  0.95860
E257  E   0.42425  0.75515  0.29140
E258  E   0.42425  0.79140  0.75515
E259  E   0.42425  0.95860  0.99485
E260  E   0.42425  0.99485  0.45860
E261  E   0.42940  0.03435  0.03625
E262  E   0.42940  0.03625  0.53435
E263  E   0.42940  0.21375  0.71565
E264  E   0.42940  0.21565  0.21375
E265  E   0.42940  0.53435  0.53625
E266  E   0.42940  0.53625  0.03435
E267  E   0.42940  0.71375  0.21565
E268  E   0.42940  0.71565  0.71375
E269  E   0.45860  0.25515  0.32575
E270  E   0.45860  0.32575  0.75515
E271  E   0.45860  0.42425  0.99485
E272  E   0.45860  0.49485  0.42425
E273  E   0.45860  0.75515  0.82575
E274  E   0.45860  0.82575  0.25515
E275  E   0.45860  0.92425  0.49485
E276  E   0.45860  0.99485  0.92425
E277  E   0.46375  0.07060  0.96565
E278  E   0.46375  0.17940  0.28435
E279  E   0.46375  0.28435  0.67940
E280  E   0.46375  0.46565  0.07060
E281  E   0.46375  0.57060  0.46565
E282  E   0.46375  0.67940  0.78435
E283  E   0.46375  0.78435  0.17940
E284  E   0.46375  0.96565  0.57060
E285  E   0.46565  0.07060  0.46375
E286  E   0.46565  0.17940  0.78625
E287  E   0.46565  0.28625  0.17940
E288  E   0.46565  0.46375  0.57060
E289  E   0.46565  0.57060  0.96375
E290  E   0.46565  0.67940  0.28625
E291  E   0.46565  0.78625  0.67940
E292  E   0.46565  0.96375  0.07060
E293  E   0.47080  0.12500  0.12500
E294  E   0.47080  0.12500  0.62500
E295  E   0.47080  0.62500  0.12500
E296  E   0.47080  0.62500  0.62500
E297  E   0.49485  0.29140  0.82575
E298  E   0.49485  0.32575  0.29140
E299  E   0.49485  0.42425  0.45860
E300  E   0.49485  0.45860  0.92425
E301  E   0.49485  0.79140  0.32575
E302  E   0.49485  0.82575  0.79140
E303  E   0.49485  0.92425  0.95860
E304  E   0.49485  0.95860  0.42425
E305  E   0.50000  0.08360  0.33360
E306  E   0.50000  0.08360  0.33360
E307  E   0.50000  0.16640  0.91640
E308  E   0.50000  0.33360  0.58360
E309  E   0.50000  0.41640  0.16640
E310  E   0.50000  0.58360  0.83360
E311  E   0.50000  0.66640  0.41640
E312  E   0.50000  0.83360  0.08360
E313  E   0.50000  0.83360  0.08360
E314  E   0.50000  0.91640  0.66640
E315  E   0.50515  0.04140  0.57575
E316  E   0.50515  0.07575  0.04140
E317  E   0.50515  0.17425  0.20860
E318  E   0.50515  0.20860  0.67425
E319  E   0.50515  0.54140  0.07575
E320  E   0.50515  0.57575  0.54140
E321  E   0.50515  0.67425  0.70860
E322  E   0.50515  0.70860  0.17425
E323  E   0.52920  0.37500  0.37500
E324  E   0.52920  0.37500  0.87500
E325  E   0.52920  0.87500  0.37500
E326  E   0.52920  0.87500  0.87500
E327  E   0.53435  0.03625  0.92940
E328  E   0.53435  0.21375  0.32060
E329  E   0.53435  0.32060  0.71375
E330  E   0.53435  0.42940  0.03625
E331  E   0.53435  0.53625  0.42940
E332  E   0.53435  0.71375  0.82060
E333  E   0.53435  0.82060  0.21375
E334  E   0.53435  0.92940  0.53625
E335  E   0.53625  0.03435  0.42940
E336  E   0.53625  0.21565  0.82060
E337  E   0.53625  0.32060  0.21565
E338  E   0.53625  0.42940  0.53435
E339  E   0.53625  0.53435  0.92940
E340  E   0.53625  0.71565  0.32060
E341  E   0.53625  0.82060  0.71565
E342  E   0.53625  0.92940  0.03435
E343  E   0.54140  0.00515  0.07575
E344  E   0.54140  0.07575  0.50515
E345  E   0.54140  0.17425  0.74485
E346  E   0.54140  0.24485  0.17425
E347  E   0.54140  0.50515  0.57575
E348  E   0.54140  0.57575  0.00515
E349  E   0.54140  0.67425  0.24485
E350  E   0.54140  0.74485  0.67425
E351  E   0.57060  0.28435  0.28625
E352  E   0.57060  0.28625  0.78435
E353  E   0.57060  0.46375  0.96565
E354  E   0.57060  0.46565  0.46375
E355  E   0.57060  0.78435  0.78625
E356  E   0.57060  0.78625  0.28435
E357  E   0.57060  0.96375  0.46565
E358  E   0.57060  0.96565  0.96375
E359  E   0.57575  0.00515  0.54140
E360  E   0.57575  0.04140  0.00515
E361  E   0.57575  0.20860  0.24485
E362  E   0.57575  0.24485  0.70860
E363  E   0.57575  0.50515  0.04140
E364  E   0.57575  0.54140  0.50515
E365  E   0.57575  0.70860  0.74485
E366  E   0.57575  0.74485  0.20860
E367  E   0.58360  0.00000  0.83360
E368  E   0.58360  0.25000  0.41640
E369  E   0.58360  0.33360  0.00000
E370  E   0.58360  0.41640  0.75000
E371  E   0.58360  0.50000  0.33360
E372  E   0.58360  0.75000  0.91640
E373  E   0.58360  0.83360  0.50000
E374  E   0.58360  0.91640  0.25000
E375  E   0.62500  0.12500  0.27920
E376  E   0.62500  0.12500  0.47080
E377  E   0.62500  0.12500  0.77920
E378  E   0.62500  0.12500  0.97080
E379  E   0.62500  0.27920  0.12500
E380  E   0.62500  0.27920  0.62500
E381  E   0.62500  0.47080  0.12500
E382  E   0.62500  0.47080  0.62500
E383  E   0.62500  0.62500  0.27920
E384  E   0.62500  0.62500  0.47080
E385  E   0.62500  0.62500  0.77920
E386  E   0.62500  0.62500  0.97080
E387  E   0.62500  0.77920  0.12500
E388  E   0.62500  0.77920  0.62500
E389  E   0.62500  0.97080  0.12500
E390  E   0.62500  0.97080  0.62500
E391  E   0.66640  0.00000  0.41640
E392  E   0.66640  0.25000  0.83360
E393  E   0.66640  0.33360  0.25000
E394  E   0.66640  0.41640  0.50000
E395  E   0.66640  0.50000  0.91640
E396  E   0.66640  0.75000  0.33360
E397  E   0.66640  0.83360  0.75000
E398  E   0.66640  0.91640  0.00000
E399  E   0.67425  0.00515  0.70860
E400  E   0.67425  0.04140  0.24485
E401  E   0.67425  0.20860  0.00515
E402  E   0.67425  0.24485  0.54140
E403  E   0.67425  0.50515  0.20860
E404  E   0.67425  0.54140  0.74485
E405  E   0.67425  0.70860  0.50515
E406  E   0.67425  0.74485  0.04140
E407  E   0.67940  0.28435  0.96375
E408  E   0.67940  0.28625  0.46565
E409  E   0.67940  0.46375  0.28435
E410  E   0.67940  0.46565  0.78625
E411  E   0.67940  0.78435  0.46375
E412  E   0.67940  0.78625  0.96565
E413  E   0.67940  0.96375  0.78435
E414  E   0.67940  0.96565  0.28625
E415  E   0.70860  0.00515  0.17425
E416  E   0.70860  0.07575  0.74485
E417  E   0.70860  0.17425  0.50515
E418  E   0.70860  0.24485  0.07575
E419  E   0.70860  0.50515  0.67425
E420  E   0.70860  0.57575  0.24485
E421  E   0.70860  0.67425  0.00515
E422  E   0.70860  0.74485  0.57575
E423  E   0.71375  0.03435  0.82060
E424  E   0.71375  0.21565  0.42940
E425  E   0.71375  0.32060  0.03435
E426  E   0.71375  0.42940  0.71565
E427  E   0.71375  0.53435  0.32060
E428  E   0.71375  0.71565  0.92940
E429  E   0.71375  0.82060  0.53435
E430  E   0.71375  0.92940  0.21565
E431  E   0.71565  0.03625  0.32060
E432  E   0.71565  0.21375  0.92940
E433  E   0.71565  0.32060  0.53625
E434  E   0.71565  0.42940  0.21375
E435  E   0.71565  0.53625  0.82060
E436  E   0.71565  0.71375  0.42940
E437  E   0.71565  0.82060  0.03625
E438  E   0.71565  0.92940  0.71375
E439  E   0.72080  0.37500  0.37500
E440  E   0.72080  0.37500  0.87500
E441  E   0.72080  0.87500  0.37500
E442  E   0.72080  0.87500  0.87500
E443  E   0.74485  0.04140  0.67425
E444  E   0.74485  0.07575  0.20860
E445  E   0.74485  0.17425  0.04140
E446  E   0.74485  0.20860  0.57575
E447  E   0.74485  0.54140  0.17425
E448  E   0.74485  0.57575  0.70860
E449  E   0.74485  0.67425  0.54140
E450  E   0.74485  0.70860  0.07575
E451  E   0.75000  0.08360  0.91640
E452  E   0.75000  0.08360  0.91640
E453  E   0.75000  0.16640  0.33360
E454  E   0.75000  0.33360  0.66640
E455  E   0.75000  0.41640  0.08360
E456  E   0.75000  0.41640  0.08360
E457  E   0.75000  0.58360  0.41640
E458  E   0.75000  0.66640  0.83360
E459  E   0.75000  0.83360  0.16640
E460  E   0.75000  0.91640  0.58360
E461  E   0.75515  0.29140  0.42425
E462  E   0.75515  0.32575  0.95860
E463  E   0.75515  0.42425  0.79140
E464  E   0.75515  0.45860  0.32575
E465  E   0.75515  0.79140  0.92425
E466  E   0.75515  0.82575  0.45860
E467  E   0.75515  0.92425  0.29140
E468  E   0.75515  0.95860  0.82575
E469  E   0.77920  0.12500  0.12500
E470  E   0.77920  0.12500  0.62500
E471  E   0.77920  0.62500  0.12500
E472  E   0.77920  0.62500  0.62500
E473  E   0.78435  0.07060  0.78625
E474  E   0.78435  0.17940  0.46375
E475  E   0.78435  0.28625  0.07060
E476  E   0.78435  0.46375  0.67940
E477  E   0.78435  0.57060  0.28625
E478  E   0.78435  0.67940  0.96375
E479  E   0.78435  0.78625  0.57060
E480  E   0.78435  0.96375  0.17940
E481  E   0.78625  0.07060  0.28435
E482  E   0.78625  0.17940  0.96565
E483  E   0.78625  0.28435  0.57060
E484  E   0.78625  0.46565  0.17940
E485  E   0.78625  0.57060  0.78435
E486  E   0.78625  0.67940  0.46565
E487  E   0.78625  0.78435  0.07060
E488  E   0.78625  0.96565  0.67940
E489  E   0.79140  0.25515  0.92425
E490  E   0.79140  0.32575  0.49485
E491  E   0.79140  0.42425  0.25515
E492  E   0.79140  0.49485  0.82575
E493  E   0.79140  0.75515  0.42425
E494  E   0.79140  0.82575  0.99485
E495  E   0.79140  0.92425  0.75515
E496  E   0.79140  0.99485  0.32575
E497  E   0.82060  0.03435  0.21375
E498  E   0.82060  0.03625  0.71565
E499  E   0.82060  0.21375  0.53435
E500  E   0.82060  0.21565  0.03625
E501  E   0.82060  0.53435  0.71375
E502  E   0.82060  0.53625  0.21565
E503  E   0.82060  0.71375  0.03435
E504  E   0.82060  0.71565  0.53625
E505  E   0.82575  0.25515  0.45860
E506  E   0.82575  0.29140  0.99485
E507  E   0.82575  0.45860  0.75515
E508  E   0.82575  0.49485  0.29140
E509  E   0.82575  0.75515  0.95860
E510  E   0.82575  0.79140  0.49485
E511  E   0.82575  0.95860  0.25515
E512  E   0.82575  0.99485  0.79140
E513  E   0.83360  0.00000  0.08360
E514  E   0.83360  0.00000  0.08360
E515  E   0.83360  0.08360  0.50000
E516  E   0.83360  0.08360  0.50000
E517  E   0.83360  0.16640  0.75000
E518  E   0.83360  0.25000  0.16640
E519  E   0.83360  0.50000  0.58360
E520  E   0.83360  0.58360  0.00000
E521  E   0.83360  0.66640  0.25000
E522  E   0.83360  0.75000  0.66640
E523  E   0.87500  0.02920  0.37500
E524  E   0.87500  0.02920  0.87500
E525  E   0.87500  0.22080  0.37500
E526  E   0.87500  0.22080  0.87500
E527  E   0.87500  0.37500  0.02920
E528  E   0.87500  0.37500  0.22080
E529  E   0.87500  0.37500  0.52920
E530  E   0.87500  0.37500  0.72080
E531  E   0.87500  0.52920  0.37500
E532  E   0.87500  0.52920  0.87500
E533  E   0.87500  0.72080  0.37500
E534  E   0.87500  0.72080  0.87500
E535  E   0.87500  0.87500  0.02920
E536  E   0.87500  0.87500  0.22080
E537  E   0.87500  0.87500  0.52920
E538  E   0.87500  0.87500  0.72080
E539  E   0.91640  0.00000  0.66640
E540  E   0.91640  0.08360  0.25000
E541  E   0.91640  0.08360  0.25000
E542  E   0.91640  0.16640  0.00000
E543  E   0.91640  0.25000  0.58360
E544  E   0.91640  0.50000  0.16640
E545  E   0.91640  0.58360  0.75000
E546  E   0.91640  0.66640  0.50000
E547  E   0.91640  0.75000  0.08360
E548  E   0.91640  0.75000  0.08360
E549  E   0.92425  0.25515  0.29140
E550  E   0.92425  0.29140  0.75515
E551  E   0.92425  0.45860  0.99485
E552  E   0.92425  0.49485  0.45860
E553  E   0.92425  0.75515  0.79140
E554  E   0.92425  0.79140  0.25515
E555  E   0.92425  0.95860  0.49485
E556  E   0.92425  0.99485  0.95860
E557  E   0.92940  0.03435  0.53625
E558  E   0.92940  0.03625  0.03435
E559  E   0.92940  0.21375  0.21565
E560  E   0.92940  0.21565  0.71375
E561  E   0.92940  0.53435  0.03625
E562  E   0.92940  0.53625  0.53435
E563  E   0.92940  0.71375  0.71565
E564  E   0.92940  0.71565  0.21375
E565  E   0.95860  0.25515  0.82575
E566  E   0.95860  0.32575  0.25515
E567  E   0.95860  0.42425  0.49485
E568  E   0.95860  0.49485  0.92425
E569  E   0.95860  0.75515  0.32575
E570  E   0.95860  0.82575  0.75515
E571  E   0.95860  0.92425  0.99485
E572  E   0.95860  0.99485  0.42425
E573  E   0.96375  0.07060  0.46565
E574  E   0.96375  0.17940  0.78435
E575  E   0.96375  0.28435  0.17940
E576  E   0.96375  0.46565  0.57060
E577  E   0.96375  0.57060  0.96565
E578  E   0.96375  0.67940  0.28435
E579  E   0.96375  0.78435  0.67940
E580  E   0.96375  0.96565  0.07060
E581  E   0.96565  0.07060  0.96375
E582  E   0.96565  0.17940  0.28625
E583  E   0.96565  0.28625  0.67940
E584  E   0.96565  0.46375  0.07060
E585  E   0.96565  0.57060  0.46375
E586  E   0.96565  0.67940  0.78625
E587  E   0.96565  0.78625  0.17940
E588  E   0.96565  0.96375  0.57060
E589  E   0.97080  0.12500  0.12500
E590  E   0.97080  0.12500  0.62500
E591  E   0.97080  0.62500  0.12500
E592  E   0.97080  0.62500  0.62500
E593  E   0.99485  0.29140  0.32575
E594  E   0.99485  0.32575  0.79140
E595  E   0.99485  0.42425  0.95860
E596  E   0.99485  0.45860  0.42425
E597  E   0.99485  0.79140  0.82575
E598  E   0.99485  0.82575  0.29140
E599  E   0.99485  0.92425  0.45860
E600  E   0.99485  0.95860  0.92425
loop_
