data_sxn_Ia-3d  hall_number: 530, V_con: 6
_audit_creation_date              2025-03-06
_audit_creation_method            'MOFbuilder_1.0'
_symmetry_space_group_name_H-M    'P1'
_symmetry_Int_Tables_number       1
_symmetry_cell_setting            triclinic
loop_
_symmetry_equiv_pos_as_xyz
  x,y,z
_cell_length_a                    53.0162
_cell_length_b                    53.0162
_cell_length_c                    53.0162
_cell_angle_alpha                 90.0
_cell_angle_beta                  90.0
_cell_angle_gamma                 90.0
loop_
_atom_site_label
_atom_site_type_symbol
_atom_site_fract_x
_atom_site_fract_y
_atom_site_fract_z
V1    V   0.03311  0.16169  0.44169
V2    V   0.03311  0.33831  0.94169
V3    V   0.03311  0.66169  0.55831
V4    V   0.03311  0.83831  0.05831
V5    V   0.05831  0.03311  0.83831
V6    V   0.05831  0.46689  0.33831
V7    V   0.05831  0.53311  0.16169
V8    V   0.05831  0.96689  0.66169
V9    V   0.08831  0.21689  0.80831
V10   V   0.08831  0.28311  0.30831
V11   V   0.08831  0.71689  0.19169
V12   V   0.08831  0.78311  0.69169
V13   V   0.16169  0.05831  0.53311
V14   V   0.16169  0.44169  0.03311
V15   V   0.16169  0.55831  0.46689
V16   V   0.16169  0.94169  0.96689
V17   V   0.19169  0.08831  0.71689
V18   V   0.19169  0.41169  0.21689
V19   V   0.19169  0.58831  0.28311
V20   V   0.19169  0.91169  0.78311
V21   V   0.21689  0.19169  0.41169
V22   V   0.21689  0.30831  0.91169
V23   V   0.21689  0.69169  0.58831
V24   V   0.21689  0.80831  0.08831
V25   V   0.28311  0.19169  0.58831
V26   V   0.28311  0.30831  0.08831
V27   V   0.28311  0.69169  0.41169
V28   V   0.28311  0.80831  0.91169
V29   V   0.30831  0.08831  0.28311
V30   V   0.30831  0.41169  0.78311
V31   V   0.30831  0.58831  0.71689
V32   V   0.30831  0.91169  0.21689
V33   V   0.33831  0.05831  0.46689
V34   V   0.33831  0.44169  0.96689
V35   V   0.33831  0.55831  0.53311
V36   V   0.33831  0.94169  0.03311
V37   V   0.41169  0.21689  0.19169
V38   V   0.41169  0.28311  0.69169
V39   V   0.41169  0.71689  0.80831
V40   V   0.41169  0.78311  0.30831
V41   V   0.44169  0.03311  0.16169
V42   V   0.44169  0.46689  0.66169
V43   V   0.44169  0.53311  0.83831
V44   V   0.44169  0.96689  0.33831
V45   V   0.46689  0.16169  0.55831
V46   V   0.46689  0.33831  0.05831
V47   V   0.46689  0.66169  0.44169
V48   V   0.46689  0.83831  0.94169
V49   V   0.53311  0.16169  0.05831
V50   V   0.53311  0.33831  0.55831
V51   V   0.53311  0.66169  0.94169
V52   V   0.53311  0.83831  0.44169
V53   V   0.55831  0.03311  0.66169
V54   V   0.55831  0.46689  0.16169
V55   V   0.55831  0.53311  0.33831
V56   V   0.55831  0.96689  0.83831
V57   V   0.58831  0.21689  0.69169
V58   V   0.58831  0.28311  0.19169
V59   V   0.58831  0.71689  0.30831
V60   V   0.58831  0.78311  0.80831
V61   V   0.66169  0.05831  0.96689
V62   V   0.66169  0.44169  0.46689
V63   V   0.66169  0.55831  0.03311
V64   V   0.66169  0.94169  0.53311
V65   V   0.69169  0.08831  0.78311
V66   V   0.69169  0.41169  0.28311
V67   V   0.69169  0.58831  0.21689
V68   V   0.69169  0.91169  0.71689
V69   V   0.71689  0.19169  0.08831
V70   V   0.71689  0.30831  0.58831
V71   V   0.71689  0.69169  0.91169
V72   V   0.71689  0.80831  0.41169
V73   V   0.78311  0.19169  0.91169
V74   V   0.78311  0.30831  0.41169
V75   V   0.78311  0.69169  0.08831
V76   V   0.78311  0.80831  0.58831
V77   V   0.80831  0.08831  0.21689
V78   V   0.80831  0.41169  0.71689
V79   V   0.80831  0.58831  0.78311
V80   V   0.80831  0.91169  0.28311
V81   V   0.83831  0.05831  0.03311
V82   V   0.83831  0.44169  0.53311
V83   V   0.83831  0.55831  0.96689
V84   V   0.83831  0.94169  0.46689
V85   V   0.91169  0.21689  0.30831
V86   V   0.91169  0.28311  0.80831
V87   V   0.91169  0.71689  0.69169
V88   V   0.91169  0.78311  0.19169
V89   V   0.94169  0.03311  0.33831
V90   V   0.94169  0.46689  0.83831
V91   V   0.94169  0.53311  0.66169
V92   V   0.94169  0.96689  0.16169
V93   V   0.96689  0.16169  0.94169
V94   V   0.96689  0.33831  0.44169
V95   V   0.96689  0.66169  0.05831
V96   V   0.96689  0.83831  0.55831
E1    E   0.00000  0.25000  0.30831
E2    E   0.00000  0.25000  0.44169
E3    E   0.00000  0.25000  0.80831
E4    E   0.00000  0.25000  0.94169
E5    E   0.00000  0.75000  0.05831
E6    E   0.00000  0.75000  0.19169
E7    E   0.00000  0.75000  0.55831
E8    E   0.00000  0.75000  0.69169
E9    E   0.01260  0.09740  0.89000
E10   E   0.01260  0.40260  0.39000
E11   E   0.01260  0.59740  0.11000
E12   E   0.01260  0.90260  0.61000
E13   E   0.02760  0.18929  0.87500
E14   E   0.02760  0.31071  0.37500
E15   E   0.02760  0.68929  0.12500
E16   E   0.02760  0.81071  0.62500
E17   E   0.05831  0.00000  0.75000
E18   E   0.05831  0.50000  0.25000
E19   E   0.06071  0.22240  0.37500
E20   E   0.06071  0.27760  0.87500
E21   E   0.06071  0.72240  0.62500
E22   E   0.06071  0.77760  0.12500
E23   E   0.07331  0.12500  0.82331
E24   E   0.07331  0.37500  0.32331
E25   E   0.07331  0.62500  0.17669
E26   E   0.07331  0.87500  0.67669
E27   E   0.07331  0.12500  0.82331
E28   E   0.07331  0.37500  0.32331
E29   E   0.07331  0.62500  0.17669
E30   E   0.07331  0.87500  0.67669
E31   E   0.09740  0.11000  0.48740
E32   E   0.09740  0.39000  0.98740
E33   E   0.09740  0.61000  0.51260
E34   E   0.09740  0.89000  0.01260
E35   E   0.11000  0.01260  0.59740
E36   E   0.11000  0.48740  0.09740
E37   E   0.11000  0.51260  0.40260
E38   E   0.11000  0.98740  0.90260
E39   E   0.12500  0.02760  0.68929
E40   E   0.12500  0.06071  0.77760
E41   E   0.12500  0.17669  0.42669
E42   E   0.12500  0.32331  0.92669
E43   E   0.12500  0.43929  0.27760
E44   E   0.12500  0.47240  0.18929
E45   E   0.12500  0.52760  0.31071
E46   E   0.12500  0.56071  0.22240
E47   E   0.12500  0.67669  0.57331
E48   E   0.12500  0.82331  0.07331
E49   E   0.12500  0.82331  0.07331
E50   E   0.12500  0.93929  0.72240
E51   E   0.12500  0.97240  0.81071
E52   E   0.14000  0.15260  0.76260
E53   E   0.14000  0.34740  0.26260
E54   E   0.14000  0.65260  0.23740
E55   E   0.14000  0.84740  0.73740
E56   E   0.15260  0.23740  0.36000
E57   E   0.15260  0.26260  0.86000
E58   E   0.15260  0.73740  0.64000
E59   E   0.15260  0.76260  0.14000
E60   E   0.17669  0.07331  0.62500
E61   E   0.17669  0.07331  0.62500
E62   E   0.17669  0.42669  0.12500
E63   E   0.17669  0.57331  0.37500
E64   E   0.17669  0.92669  0.87500
E65   E   0.18929  0.12500  0.47240
E66   E   0.18929  0.37500  0.97240
E67   E   0.18929  0.62500  0.52760
E68   E   0.18929  0.87500  0.02760
E69   E   0.19169  0.00000  0.75000
E70   E   0.19169  0.50000  0.25000
E71   E   0.22240  0.12500  0.56071
E72   E   0.22240  0.37500  0.06071
E73   E   0.22240  0.62500  0.43929
E74   E   0.22240  0.87500  0.93929
E75   E   0.23740  0.14000  0.65260
E76   E   0.23740  0.36000  0.15260
E77   E   0.23740  0.64000  0.34740
E78   E   0.23740  0.86000  0.84740
E79   E   0.25000  0.05831  0.50000
E80   E   0.25000  0.19169  0.50000
E81   E   0.25000  0.30831  0.00000
E82   E   0.25000  0.44169  0.00000
E83   E   0.25000  0.55831  0.50000
E84   E   0.25000  0.69169  0.50000
E85   E   0.25000  0.80831  0.00000
E86   E   0.25000  0.94169  0.00000
E87   E   0.26260  0.14000  0.34740
E88   E   0.26260  0.36000  0.84740
E89   E   0.26260  0.64000  0.65260
E90   E   0.26260  0.86000  0.15260
E91   E   0.27760  0.12500  0.43929
E92   E   0.27760  0.37500  0.93929
E93   E   0.27760  0.62500  0.56071
E94   E   0.27760  0.87500  0.06071
E95   E   0.30831  0.00000  0.25000
E96   E   0.30831  0.50000  0.75000
E97   E   0.31071  0.12500  0.52760
E98   E   0.31071  0.37500  0.02760
E99   E   0.31071  0.62500  0.47240
E100  E   0.31071  0.87500  0.97240
E101  E   0.32331  0.07331  0.37500
E102  E   0.32331  0.07331  0.37500
E103  E   0.32331  0.42669  0.87500
E104  E   0.32331  0.57331  0.62500
E105  E   0.32331  0.92669  0.12500
E106  E   0.34740  0.23740  0.64000
E107  E   0.34740  0.26260  0.14000
E108  E   0.34740  0.73740  0.36000
E109  E   0.34740  0.76260  0.86000
E110  E   0.36000  0.15260  0.23740
E111  E   0.36000  0.34740  0.73740
E112  E   0.36000  0.65260  0.76260
E113  E   0.36000  0.84740  0.26260
E114  E   0.37500  0.02760  0.31071
E115  E   0.37500  0.06071  0.22240
E116  E   0.37500  0.17669  0.57331
E117  E   0.37500  0.32331  0.07331
E118  E   0.37500  0.32331  0.07331
E119  E   0.37500  0.43929  0.72240
E120  E   0.37500  0.47240  0.81071
E121  E   0.37500  0.52760  0.68929
E122  E   0.37500  0.56071  0.77760
E123  E   0.37500  0.67669  0.42669
E124  E   0.37500  0.82331  0.92669
E125  E   0.37500  0.93929  0.27760
E126  E   0.37500  0.97240  0.18929
E127  E   0.39000  0.01260  0.40260
E128  E   0.39000  0.48740  0.90260
E129  E   0.39000  0.51260  0.59740
E130  E   0.39000  0.98740  0.09740
E131  E   0.40260  0.11000  0.51260
E132  E   0.40260  0.39000  0.01260
E133  E   0.40260  0.61000  0.48740
E134  E   0.40260  0.89000  0.98740
E135  E   0.42669  0.12500  0.17669
E136  E   0.42669  0.37500  0.67669
E137  E   0.42669  0.62500  0.82331
E138  E   0.42669  0.87500  0.32331
E139  E   0.43929  0.22240  0.62500
E140  E   0.43929  0.27760  0.12500
E141  E   0.43929  0.72240  0.37500
E142  E   0.43929  0.77760  0.87500
E143  E   0.44169  0.00000  0.25000
E144  E   0.44169  0.50000  0.75000
E145  E   0.47240  0.18929  0.12500
E146  E   0.47240  0.31071  0.62500
E147  E   0.47240  0.68929  0.87500
E148  E   0.47240  0.81071  0.37500
E149  E   0.48740  0.09740  0.11000
E150  E   0.48740  0.40260  0.61000
E151  E   0.48740  0.59740  0.89000
E152  E   0.48740  0.90260  0.39000
E153  E   0.50000  0.25000  0.05831
E154  E   0.50000  0.25000  0.19169
E155  E   0.50000  0.25000  0.55831
E156  E   0.50000  0.25000  0.69169
E157  E   0.50000  0.75000  0.30831
E158  E   0.50000  0.75000  0.44169
E159  E   0.50000  0.75000  0.80831
E160  E   0.50000  0.75000  0.94169
E161  E   0.51260  0.09740  0.61000
E162  E   0.51260  0.40260  0.11000
E163  E   0.51260  0.59740  0.39000
E164  E   0.51260  0.90260  0.89000
E165  E   0.52760  0.18929  0.62500
E166  E   0.52760  0.31071  0.12500
E167  E   0.52760  0.68929  0.37500
E168  E   0.52760  0.81071  0.87500
E169  E   0.55831  0.00000  0.75000
E170  E   0.55831  0.50000  0.25000
E171  E   0.56071  0.22240  0.12500
E172  E   0.56071  0.27760  0.62500
E173  E   0.56071  0.72240  0.87500
E174  E   0.56071  0.77760  0.37500
E175  E   0.57331  0.12500  0.67669
E176  E   0.57331  0.37500  0.17669
E177  E   0.57331  0.62500  0.32331
E178  E   0.57331  0.87500  0.82331
E179  E   0.59740  0.11000  0.01260
E180  E   0.59740  0.39000  0.51260
E181  E   0.59740  0.61000  0.98740
E182  E   0.59740  0.89000  0.48740
E183  E   0.61000  0.01260  0.90260
E184  E   0.61000  0.48740  0.40260
E185  E   0.61000  0.51260  0.09740
E186  E   0.61000  0.98740  0.59740
E187  E   0.62500  0.02760  0.81071
E188  E   0.62500  0.06071  0.72240
E189  E   0.62500  0.17669  0.07331
E190  E   0.62500  0.17669  0.07331
E191  E   0.62500  0.32331  0.57331
E192  E   0.62500  0.43929  0.22240
E193  E   0.62500  0.47240  0.31071
E194  E   0.62500  0.52760  0.18929
E195  E   0.62500  0.56071  0.27760
E196  E   0.62500  0.67669  0.92669
E197  E   0.62500  0.82331  0.42669
E198  E   0.62500  0.93929  0.77760
E199  E   0.62500  0.97240  0.68929
E200  E   0.64000  0.15260  0.73740
E201  E   0.64000  0.34740  0.23740
E202  E   0.64000  0.65260  0.26260
E203  E   0.64000  0.84740  0.76260
E204  E   0.65260  0.23740  0.14000
E205  E   0.65260  0.26260  0.64000
E206  E   0.65260  0.73740  0.86000
E207  E   0.65260  0.76260  0.36000
E208  E   0.67669  0.07331  0.87500
E209  E   0.67669  0.07331  0.87500
E210  E   0.67669  0.42669  0.37500
E211  E   0.67669  0.57331  0.12500
E212  E   0.67669  0.92669  0.62500
E213  E   0.68929  0.12500  0.02760
E214  E   0.68929  0.37500  0.52760
E215  E   0.68929  0.62500  0.97240
E216  E   0.68929  0.87500  0.47240
E217  E   0.69169  0.00000  0.75000
E218  E   0.69169  0.50000  0.25000
E219  E   0.72240  0.12500  0.93929
E220  E   0.72240  0.37500  0.43929
E221  E   0.72240  0.62500  0.06071
E222  E   0.72240  0.87500  0.56071
E223  E   0.73740  0.14000  0.84740
E224  E   0.73740  0.36000  0.34740
E225  E   0.73740  0.64000  0.15260
E226  E   0.73740  0.86000  0.65260
E227  E   0.75000  0.05831  0.00000
E228  E   0.75000  0.19169  0.00000
E229  E   0.75000  0.30831  0.50000
E230  E   0.75000  0.44169  0.50000
E231  E   0.75000  0.55831  0.00000
E232  E   0.75000  0.69169  0.00000
E233  E   0.75000  0.80831  0.50000
E234  E   0.75000  0.94169  0.50000
E235  E   0.76260  0.14000  0.15260
E236  E   0.76260  0.36000  0.65260
E237  E   0.76260  0.64000  0.84740
E238  E   0.76260  0.86000  0.34740
E239  E   0.77760  0.12500  0.06071
E240  E   0.77760  0.37500  0.56071
E241  E   0.77760  0.62500  0.93929
E242  E   0.77760  0.87500  0.43929
E243  E   0.80831  0.00000  0.25000
E244  E   0.80831  0.50000  0.75000
E245  E   0.81071  0.12500  0.97240
E246  E   0.81071  0.37500  0.47240
E247  E   0.81071  0.62500  0.02760
E248  E   0.81071  0.87500  0.52760
E249  E   0.82331  0.07331  0.12500
E250  E   0.82331  0.07331  0.12500
E251  E   0.82331  0.42669  0.62500
E252  E   0.82331  0.57331  0.87500
E253  E   0.82331  0.92669  0.37500
E254  E   0.84740  0.23740  0.86000
E255  E   0.84740  0.26260  0.36000
E256  E   0.84740  0.73740  0.14000
E257  E   0.84740  0.76260  0.64000
E258  E   0.86000  0.15260  0.26260
E259  E   0.86000  0.34740  0.76260
E260  E   0.86000  0.65260  0.73740
E261  E   0.86000  0.84740  0.23740
E262  E   0.87500  0.02760  0.18929
E263  E   0.87500  0.06071  0.27760
E264  E   0.87500  0.17669  0.92669
E265  E   0.87500  0.32331  0.42669
E266  E   0.87500  0.43929  0.77760
E267  E   0.87500  0.47240  0.68929
E268  E   0.87500  0.52760  0.81071
E269  E   0.87500  0.56071  0.72240
E270  E   0.87500  0.67669  0.07331
E271  E   0.87500  0.67669  0.07331
E272  E   0.87500  0.82331  0.57331
E273  E   0.87500  0.93929  0.22240
E274  E   0.87500  0.97240  0.31071
E275  E   0.89000  0.01260  0.09740
E276  E   0.89000  0.48740  0.59740
E277  E   0.89000  0.51260  0.90260
E278  E   0.89000  0.98740  0.40260
E279  E   0.90260  0.11000  0.98740
E280  E   0.90260  0.39000  0.48740
E281  E   0.90260  0.61000  0.01260
E282  E   0.90260  0.89000  0.51260
E283  E   0.92669  0.12500  0.32331
E284  E   0.92669  0.37500  0.82331
E285  E   0.92669  0.62500  0.67669
E286  E   0.92669  0.87500  0.17669
E287  E   0.93929  0.22240  0.87500
E288  E   0.93929  0.27760  0.37500
E289  E   0.93929  0.72240  0.12500
E290  E   0.93929  0.77760  0.62500
E291  E   0.94169  0.00000  0.25000
E292  E   0.94169  0.50000  0.75000
E293  E   0.97240  0.18929  0.37500
E294  E   0.97240  0.31071  0.87500
E295  E   0.97240  0.68929  0.62500
E296  E   0.97240  0.81071  0.12500
E297  E   0.98740  0.09740  0.39000
E298  E   0.98740  0.40260  0.89000
E299  E   0.98740  0.59740  0.61000
E300  E   0.98740  0.90260  0.11000
loop_
