data_sxq_Ia-3d  hall_number: 530, V_con: 6
_audit_creation_date              2025-03-06
_audit_creation_method            'MOFbuilder_1.0'
_symmetry_space_group_name_H-M    'P1'
_symmetry_Int_Tables_number       1
_symmetry_cell_setting            triclinic
loop_
_symmetry_equiv_pos_as_xyz
  x,y,z
_cell_length_a                    46.5518
_cell_length_b                    46.5518
_cell_length_c                    46.5518
_cell_angle_alpha                 90.0
_cell_angle_beta                  90.0
_cell_angle_gamma                 90.0
loop_
_atom_site_label
_atom_site_type_symbol
_atom_site_fract_x
_atom_site_fract_y
_atom_site_fract_z
V1    V   0.02664  0.14595  0.53259
V2    V   0.02664  0.35405  0.03259
V3    V   0.02664  0.64595  0.46741
V4    V   0.02664  0.85405  0.96741
V5    V   0.03259  0.02664  0.35405
V6    V   0.03259  0.47336  0.85405
V7    V   0.03259  0.52664  0.64595
V8    V   0.03259  0.97336  0.14595
V9    V   0.10405  0.22336  0.71741
V10   V   0.10405  0.27664  0.21741
V11   V   0.10405  0.72336  0.28259
V12   V   0.10405  0.77664  0.78259
V13   V   0.14595  0.03259  0.97336
V14   V   0.14595  0.46741  0.47336
V15   V   0.14595  0.53259  0.02664
V16   V   0.14595  0.96741  0.52664
V17   V   0.21741  0.10405  0.27664
V18   V   0.21741  0.39595  0.77664
V19   V   0.21741  0.60405  0.72336
V20   V   0.21741  0.89595  0.22336
V21   V   0.22336  0.21741  0.89595
V22   V   0.22336  0.28259  0.39595
V23   V   0.22336  0.71741  0.10405
V24   V   0.22336  0.78259  0.60405
V25   V   0.27664  0.21741  0.10405
V26   V   0.27664  0.28259  0.60405
V27   V   0.27664  0.71741  0.89595
V28   V   0.27664  0.78259  0.39595
V29   V   0.28259  0.10405  0.72336
V30   V   0.28259  0.39595  0.22336
V31   V   0.28259  0.60405  0.27664
V32   V   0.28259  0.89595  0.77664
V33   V   0.35405  0.03259  0.02664
V34   V   0.35405  0.46741  0.52664
V35   V   0.35405  0.53259  0.97336
V36   V   0.35405  0.96741  0.47336
V37   V   0.39595  0.22336  0.28259
V38   V   0.39595  0.27664  0.78259
V39   V   0.39595  0.72336  0.71741
V40   V   0.39595  0.77664  0.21741
V41   V   0.46741  0.02664  0.64595
V42   V   0.46741  0.47336  0.14595
V43   V   0.46741  0.52664  0.35405
V44   V   0.46741  0.97336  0.85405
V45   V   0.47336  0.14595  0.46741
V46   V   0.47336  0.35405  0.96741
V47   V   0.47336  0.64595  0.53259
V48   V   0.47336  0.85405  0.03259
V49   V   0.52664  0.14595  0.96741
V50   V   0.52664  0.35405  0.46741
V51   V   0.52664  0.64595  0.03259
V52   V   0.52664  0.85405  0.53259
V53   V   0.53259  0.02664  0.14595
V54   V   0.53259  0.47336  0.64595
V55   V   0.53259  0.52664  0.85405
V56   V   0.53259  0.97336  0.35405
V57   V   0.60405  0.22336  0.78259
V58   V   0.60405  0.27664  0.28259
V59   V   0.60405  0.72336  0.21741
V60   V   0.60405  0.77664  0.71741
V61   V   0.64595  0.03259  0.52664
V62   V   0.64595  0.46741  0.02664
V63   V   0.64595  0.53259  0.47336
V64   V   0.64595  0.96741  0.97336
V65   V   0.71741  0.10405  0.22336
V66   V   0.71741  0.39595  0.72336
V67   V   0.71741  0.60405  0.77664
V68   V   0.71741  0.89595  0.27664
V69   V   0.72336  0.21741  0.60405
V70   V   0.72336  0.28259  0.10405
V71   V   0.72336  0.71741  0.39595
V72   V   0.72336  0.78259  0.89595
V73   V   0.77664  0.21741  0.39595
V74   V   0.77664  0.28259  0.89595
V75   V   0.77664  0.71741  0.60405
V76   V   0.77664  0.78259  0.10405
V77   V   0.78259  0.10405  0.77664
V78   V   0.78259  0.39595  0.27664
V79   V   0.78259  0.60405  0.22336
V80   V   0.78259  0.89595  0.72336
V81   V   0.85405  0.03259  0.47336
V82   V   0.85405  0.46741  0.97336
V83   V   0.85405  0.53259  0.52664
V84   V   0.85405  0.96741  0.02664
V85   V   0.89595  0.22336  0.21741
V86   V   0.89595  0.27664  0.71741
V87   V   0.89595  0.72336  0.78259
V88   V   0.89595  0.77664  0.28259
V89   V   0.96741  0.02664  0.85405
V90   V   0.96741  0.47336  0.35405
V91   V   0.96741  0.52664  0.14595
V92   V   0.96741  0.97336  0.64595
V93   V   0.97336  0.14595  0.03259
V94   V   0.97336  0.35405  0.53259
V95   V   0.97336  0.64595  0.96741
V96   V   0.97336  0.85405  0.46741
E1    E   0.00000  0.25000  0.03259
E2    E   0.00000  0.25000  0.21741
E3    E   0.00000  0.25000  0.53259
E4    E   0.00000  0.25000  0.71741
E5    E   0.00000  0.75000  0.28259
E6    E   0.00000  0.75000  0.46741
E7    E   0.00000  0.75000  0.78259
E8    E   0.00000  0.75000  0.96741
E9    E   0.00297  0.05965  0.08927
E10   E   0.00297  0.44035  0.58927
E11   E   0.00297  0.55965  0.91073
E12   E   0.00297  0.94035  0.41073
E13   E   0.02961  0.08629  0.44332
E14   E   0.02961  0.41371  0.94332
E15   E   0.02961  0.58629  0.55668
E16   E   0.02961  0.91371  0.05668
E17   E   0.03259  0.00000  0.25000
E18   E   0.03259  0.50000  0.75000
E19   E   0.05668  0.02961  0.91371
E20   E   0.05668  0.47039  0.41371
E21   E   0.05668  0.52961  0.08629
E22   E   0.05668  0.97039  0.58629
E23   E   0.05965  0.08927  0.00297
E24   E   0.05965  0.41073  0.50297
E25   E   0.05965  0.58927  0.99703
E26   E   0.05965  0.91073  0.49703
E27   E   0.06535  0.18465  0.62500
E28   E   0.06535  0.31535  0.12500
E29   E   0.06535  0.68465  0.37500
E30   E   0.06535  0.81535  0.87500
E31   E   0.06535  0.18465  0.62500
E32   E   0.06535  0.31535  0.12500
E33   E   0.06535  0.68465  0.37500
E34   E   0.06535  0.81535  0.87500
E35   E   0.08629  0.05668  0.52961
E36   E   0.08629  0.44332  0.02961
E37   E   0.08629  0.55668  0.47039
E38   E   0.08629  0.94332  0.97039
E39   E   0.08927  0.00297  0.05965
E40   E   0.08927  0.49703  0.55965
E41   E   0.08927  0.50297  0.94035
E42   E   0.08927  0.99703  0.44035
E43   E   0.12500  0.06535  0.31535
E44   E   0.12500  0.06535  0.31535
E45   E   0.12500  0.43465  0.81535
E46   E   0.12500  0.56535  0.68465
E47   E   0.12500  0.93465  0.18465
E48   E   0.16073  0.19035  0.24703
E49   E   0.16073  0.30965  0.74703
E50   E   0.16073  0.69035  0.75297
E51   E   0.16073  0.80965  0.25297
E52   E   0.16371  0.22039  0.80668
E53   E   0.16371  0.27961  0.30668
E54   E   0.16371  0.72039  0.19332
E55   E   0.16371  0.77961  0.69332
E56   E   0.18465  0.12500  0.93465
E57   E   0.18465  0.37500  0.43465
E58   E   0.18465  0.62500  0.06535
E59   E   0.18465  0.62500  0.06535
E60   E   0.18465  0.87500  0.56535
E61   E   0.19035  0.24703  0.16073
E62   E   0.19035  0.25297  0.66073
E63   E   0.19035  0.74703  0.83927
E64   E   0.19035  0.75297  0.33927
E65   E   0.19332  0.16371  0.72039
E66   E   0.19332  0.33629  0.22039
E67   E   0.19332  0.66371  0.27961
E68   E   0.19332  0.83629  0.77961
E69   E   0.21741  0.00000  0.25000
E70   E   0.21741  0.50000  0.75000
E71   E   0.22039  0.19332  0.33629
E72   E   0.22039  0.30668  0.83629
E73   E   0.22039  0.69332  0.66371
E74   E   0.22039  0.80668  0.16371
E75   E   0.24703  0.16073  0.19035
E76   E   0.24703  0.33927  0.69035
E77   E   0.24703  0.66073  0.80965
E78   E   0.24703  0.83927  0.30965
E79   E   0.25000  0.03259  0.00000
E80   E   0.25000  0.21741  0.00000
E81   E   0.25000  0.28259  0.50000
E82   E   0.25000  0.46741  0.50000
E83   E   0.25000  0.53259  0.00000
E84   E   0.25000  0.71741  0.00000
E85   E   0.25000  0.78259  0.50000
E86   E   0.25000  0.96741  0.50000
E87   E   0.25297  0.16073  0.80965
E88   E   0.25297  0.33927  0.30965
E89   E   0.25297  0.66073  0.19035
E90   E   0.25297  0.83927  0.69035
E91   E   0.27961  0.19332  0.66371
E92   E   0.27961  0.30668  0.16371
E93   E   0.27961  0.69332  0.33629
E94   E   0.27961  0.80668  0.83629
E95   E   0.28259  0.00000  0.75000
E96   E   0.28259  0.50000  0.25000
E97   E   0.30668  0.16371  0.27961
E98   E   0.30668  0.33629  0.77961
E99   E   0.30668  0.66371  0.72039
E100  E   0.30668  0.83629  0.22039
E101  E   0.30965  0.24703  0.83927
E102  E   0.30965  0.25297  0.33927
E103  E   0.30965  0.74703  0.16073
E104  E   0.30965  0.75297  0.66073
E105  E   0.31535  0.12500  0.06535
E106  E   0.31535  0.12500  0.06535
E107  E   0.31535  0.37500  0.56535
E108  E   0.31535  0.62500  0.93465
E109  E   0.31535  0.87500  0.43465
E110  E   0.33629  0.22039  0.19332
E111  E   0.33629  0.27961  0.69332
E112  E   0.33629  0.72039  0.80668
E113  E   0.33629  0.77961  0.30668
E114  E   0.33927  0.19035  0.75297
E115  E   0.33927  0.30965  0.25297
E116  E   0.33927  0.69035  0.24703
E117  E   0.33927  0.80965  0.74703
E118  E   0.37500  0.06535  0.68465
E119  E   0.37500  0.06535  0.68465
E120  E   0.37500  0.43465  0.18465
E121  E   0.37500  0.56535  0.31535
E122  E   0.37500  0.93465  0.81535
E123  E   0.41073  0.00297  0.94035
E124  E   0.41073  0.49703  0.44035
E125  E   0.41073  0.50297  0.05965
E126  E   0.41073  0.99703  0.55965
E127  E   0.41371  0.05668  0.47039
E128  E   0.41371  0.44332  0.97039
E129  E   0.41371  0.55668  0.52961
E130  E   0.41371  0.94332  0.02961
E131  E   0.43465  0.18465  0.37500
E132  E   0.43465  0.31535  0.87500
E133  E   0.43465  0.68465  0.62500
E134  E   0.43465  0.81535  0.12500
E135  E   0.44035  0.08927  0.99703
E136  E   0.44035  0.41073  0.49703
E137  E   0.44035  0.58927  0.00297
E138  E   0.44035  0.91073  0.50297
E139  E   0.44332  0.02961  0.08629
E140  E   0.44332  0.47039  0.58629
E141  E   0.44332  0.52961  0.91371
E142  E   0.44332  0.97039  0.41371
E143  E   0.46741  0.00000  0.75000
E144  E   0.46741  0.50000  0.25000
E145  E   0.47039  0.08629  0.55668
E146  E   0.47039  0.41371  0.05668
E147  E   0.47039  0.58629  0.44332
E148  E   0.47039  0.91371  0.94332
E149  E   0.49703  0.05965  0.91073
E150  E   0.49703  0.44035  0.41073
E151  E   0.49703  0.55965  0.08927
E152  E   0.49703  0.94035  0.58927
E153  E   0.50000  0.25000  0.28259
E154  E   0.50000  0.25000  0.46741
E155  E   0.50000  0.25000  0.78259
E156  E   0.50000  0.25000  0.96741
E157  E   0.50000  0.75000  0.03259
E158  E   0.50000  0.75000  0.21741
E159  E   0.50000  0.75000  0.53259
E160  E   0.50000  0.75000  0.71741
E161  E   0.50297  0.05965  0.41073
E162  E   0.50297  0.44035  0.91073
E163  E   0.50297  0.55965  0.58927
E164  E   0.50297  0.94035  0.08927
E165  E   0.52961  0.08629  0.05668
E166  E   0.52961  0.41371  0.55668
E167  E   0.52961  0.58629  0.94332
E168  E   0.52961  0.91371  0.44332
E169  E   0.53259  0.00000  0.25000
E170  E   0.53259  0.50000  0.75000
E171  E   0.55668  0.02961  0.58629
E172  E   0.55668  0.47039  0.08629
E173  E   0.55668  0.52961  0.41371
E174  E   0.55668  0.97039  0.91371
E175  E   0.55965  0.08927  0.49703
E176  E   0.55965  0.41073  0.99703
E177  E   0.55965  0.58927  0.50297
E178  E   0.55965  0.91073  0.00297
E179  E   0.56535  0.18465  0.87500
E180  E   0.56535  0.31535  0.37500
E181  E   0.56535  0.68465  0.12500
E182  E   0.56535  0.81535  0.62500
E183  E   0.58629  0.05668  0.97039
E184  E   0.58629  0.44332  0.47039
E185  E   0.58629  0.55668  0.02961
E186  E   0.58629  0.94332  0.52961
E187  E   0.58927  0.00297  0.44035
E188  E   0.58927  0.49703  0.94035
E189  E   0.58927  0.50297  0.55965
E190  E   0.58927  0.99703  0.05965
E191  E   0.62500  0.06535  0.18465
E192  E   0.62500  0.06535  0.18465
E193  E   0.62500  0.43465  0.68465
E194  E   0.62500  0.56535  0.81535
E195  E   0.62500  0.93465  0.31535
E196  E   0.66073  0.19035  0.25297
E197  E   0.66073  0.30965  0.75297
E198  E   0.66073  0.69035  0.74703
E199  E   0.66073  0.80965  0.24703
E200  E   0.66371  0.22039  0.69332
E201  E   0.66371  0.27961  0.19332
E202  E   0.66371  0.72039  0.30668
E203  E   0.66371  0.77961  0.80668
E204  E   0.68465  0.12500  0.56535
E205  E   0.68465  0.37500  0.06535
E206  E   0.68465  0.37500  0.06535
E207  E   0.68465  0.62500  0.43465
E208  E   0.68465  0.87500  0.93465
E209  E   0.69035  0.24703  0.33927
E210  E   0.69035  0.25297  0.83927
E211  E   0.69035  0.74703  0.66073
E212  E   0.69035  0.75297  0.16073
E213  E   0.69332  0.16371  0.77961
E214  E   0.69332  0.33629  0.27961
E215  E   0.69332  0.66371  0.22039
E216  E   0.69332  0.83629  0.72039
E217  E   0.71741  0.00000  0.25000
E218  E   0.71741  0.50000  0.75000
E219  E   0.72039  0.19332  0.16371
E220  E   0.72039  0.30668  0.66371
E221  E   0.72039  0.69332  0.83629
E222  E   0.72039  0.80668  0.33629
E223  E   0.74703  0.16073  0.30965
E224  E   0.74703  0.33927  0.80965
E225  E   0.74703  0.66073  0.69035
E226  E   0.74703  0.83927  0.19035
E227  E   0.75000  0.03259  0.50000
E228  E   0.75000  0.21741  0.50000
E229  E   0.75000  0.28259  0.00000
E230  E   0.75000  0.46741  0.00000
E231  E   0.75000  0.53259  0.50000
E232  E   0.75000  0.71741  0.50000
E233  E   0.75000  0.78259  0.00000
E234  E   0.75000  0.96741  0.00000
E235  E   0.75297  0.16073  0.69035
E236  E   0.75297  0.33927  0.19035
E237  E   0.75297  0.66073  0.30965
E238  E   0.75297  0.83927  0.80965
E239  E   0.77961  0.19332  0.83629
E240  E   0.77961  0.30668  0.33629
E241  E   0.77961  0.69332  0.16371
E242  E   0.77961  0.80668  0.66371
E243  E   0.78259  0.00000  0.75000
E244  E   0.78259  0.50000  0.25000
E245  E   0.80668  0.16371  0.22039
E246  E   0.80668  0.33629  0.72039
E247  E   0.80668  0.66371  0.77961
E248  E   0.80668  0.83629  0.27961
E249  E   0.80965  0.24703  0.66073
E250  E   0.80965  0.25297  0.16073
E251  E   0.80965  0.74703  0.33927
E252  E   0.80965  0.75297  0.83927
E253  E   0.81535  0.12500  0.43465
E254  E   0.81535  0.37500  0.93465
E255  E   0.81535  0.62500  0.56535
E256  E   0.81535  0.87500  0.06535
E257  E   0.81535  0.87500  0.06535
E258  E   0.83629  0.22039  0.30668
E259  E   0.83629  0.27961  0.80668
E260  E   0.83629  0.72039  0.69332
E261  E   0.83629  0.77961  0.19332
E262  E   0.83927  0.19035  0.74703
E263  E   0.83927  0.30965  0.24703
E264  E   0.83927  0.69035  0.25297
E265  E   0.83927  0.80965  0.75297
E266  E   0.87500  0.06535  0.81535
E267  E   0.87500  0.06535  0.81535
E268  E   0.87500  0.43465  0.31535
E269  E   0.87500  0.56535  0.18465
E270  E   0.87500  0.93465  0.68465
E271  E   0.91073  0.00297  0.55965
E272  E   0.91073  0.49703  0.05965
E273  E   0.91073  0.50297  0.44035
E274  E   0.91073  0.99703  0.94035
E275  E   0.91371  0.05668  0.02961
E276  E   0.91371  0.44332  0.52961
E277  E   0.91371  0.55668  0.97039
E278  E   0.91371  0.94332  0.47039
E279  E   0.93465  0.18465  0.12500
E280  E   0.93465  0.31535  0.62500
E281  E   0.93465  0.68465  0.87500
E282  E   0.93465  0.81535  0.37500
E283  E   0.94035  0.08927  0.50297
E284  E   0.94035  0.41073  0.00297
E285  E   0.94035  0.58927  0.49703
E286  E   0.94035  0.91073  0.99703
E287  E   0.94332  0.02961  0.41371
E288  E   0.94332  0.47039  0.91371
E289  E   0.94332  0.52961  0.58629
E290  E   0.94332  0.97039  0.08629
E291  E   0.96741  0.00000  0.75000
E292  E   0.96741  0.50000  0.25000
E293  E   0.97039  0.08629  0.94332
E294  E   0.97039  0.41371  0.44332
E295  E   0.97039  0.58629  0.05668
E296  E   0.97039  0.91371  0.55668
E297  E   0.99703  0.05965  0.58927
E298  E   0.99703  0.44035  0.08927
E299  E   0.99703  0.55965  0.41073
E300  E   0.99703  0.94035  0.91073
loop_
