data_sxt_I432  hall_number: 507, V_con: 3
_audit_creation_date              2025-03-06
_audit_creation_method            'MOFbuilder_1.0'
_symmetry_space_group_name_H-M    'P1'
_symmetry_Int_Tables_number       1
_symmetry_cell_setting            triclinic
loop_
_symmetry_equiv_pos_as_xyz
  x,y,z
_cell_length_a                    17.0192
_cell_length_b                    17.0192
_cell_length_c                    17.0192
_cell_angle_alpha                 90.0
_cell_angle_beta                  90.0
_cell_angle_gamma                 90.0
loop_
_atom_site_label
_atom_site_type_symbol
_atom_site_fract_x
_atom_site_fract_y
_atom_site_fract_z
V1    V   0.20774  0.25000  0.70774
V2    V   0.20774  0.29226  0.25000
V3    V   0.20774  0.70774  0.75000
V4    V   0.20774  0.75000  0.29226
V5    V   0.20774  0.25000  0.70774
V6    V   0.20774  0.29226  0.25000
V7    V   0.20774  0.70774  0.75000
V8    V   0.20774  0.75000  0.29226
V9    V   0.25000  0.20774  0.29226
V10   V   0.25000  0.20774  0.29226
V11   V   0.25000  0.29226  0.79226
V12   V   0.25000  0.29226  0.79226
V13   V   0.25000  0.70774  0.20774
V14   V   0.25000  0.70774  0.20774
V15   V   0.25000  0.79226  0.70774
V16   V   0.29226  0.20774  0.75000
V17   V   0.29226  0.25000  0.20774
V18   V   0.29226  0.75000  0.79226
V19   V   0.29226  0.79226  0.25000
V20   V   0.29226  0.20774  0.75000
V21   V   0.29226  0.25000  0.20774
V22   V   0.29226  0.75000  0.79226
V23   V   0.29226  0.79226  0.25000
V24   V   0.70774  0.20774  0.25000
V25   V   0.70774  0.20774  0.25000
V26   V   0.70774  0.25000  0.79226
V27   V   0.70774  0.75000  0.20774
V28   V   0.70774  0.75000  0.20774
V29   V   0.70774  0.79226  0.75000
V30   V   0.75000  0.20774  0.70774
V31   V   0.75000  0.20774  0.70774
V32   V   0.75000  0.29226  0.20774
V33   V   0.75000  0.29226  0.20774
V34   V   0.75000  0.70774  0.79226
V35   V   0.75000  0.79226  0.29226
V36   V   0.75000  0.79226  0.29226
V37   V   0.79226  0.25000  0.29226
V38   V   0.79226  0.25000  0.29226
V39   V   0.79226  0.29226  0.75000
V40   V   0.79226  0.29226  0.75000
V41   V   0.79226  0.70774  0.25000
V42   V   0.79226  0.75000  0.70774
E1    E   0.00000  0.22887  0.22887
E2    E   0.00000  0.22887  0.77113
E3    E   0.00000  0.25000  0.50000
E4    E   0.00000  0.50000  0.25000
E5    E   0.00000  0.50000  0.75000
E6    E   0.00000  0.75000  0.50000
E7    E   0.00000  0.77113  0.22887
E8    E   0.00000  0.77113  0.77113
E9    E   0.22887  0.00000  0.22887
E10   E   0.22887  0.00000  0.77113
E11   E   0.22887  0.22887  0.00000
E12   E   0.22887  0.77113  0.00000
E13   E   0.25000  0.00000  0.50000
E14   E   0.25000  0.50000  0.00000
E15   E   0.27113  0.27113  0.50000
E16   E   0.27113  0.50000  0.27113
E17   E   0.27113  0.50000  0.72887
E18   E   0.27113  0.72887  0.50000
E19   E   0.50000  0.00000  0.25000
E20   E   0.50000  0.00000  0.75000
E21   E   0.50000  0.25000  0.00000
E22   E   0.50000  0.27113  0.27113
E23   E   0.50000  0.27113  0.72887
E24   E   0.50000  0.72887  0.27113
E25   E   0.50000  0.72887  0.72887
E26   E   0.50000  0.75000  0.00000
E27   E   0.72887  0.27113  0.50000
E28   E   0.72887  0.50000  0.27113
E29   E   0.72887  0.50000  0.72887
E30   E   0.72887  0.72887  0.50000
E31   E   0.75000  0.00000  0.50000
E32   E   0.75000  0.50000  0.00000
E33   E   0.77113  0.00000  0.22887
E34   E   0.77113  0.00000  0.77113
E35   E   0.77113  0.22887  0.00000
E36   E   0.77113  0.77113  0.00000
loop_
