data_tbd_Fm-3m  hall_number: 523, V_con: 3, EC_con: 3
_audit_creation_date              2025-03-06
_audit_creation_method            'MOFbuilder_1.0'
_symmetry_space_group_name_H-M    'P1'
_symmetry_Int_Tables_number       1
_symmetry_cell_setting            triclinic
loop_
_symmetry_equiv_pos_as_xyz
  x,y,z
_cell_length_a                    68.9897
_cell_length_b                    68.9897
_cell_length_c                    68.9897
_cell_angle_alpha                 90.0
_cell_angle_beta                  90.0
_cell_angle_gamma                 90.0
loop_
_atom_site_label
_atom_site_type_symbol
_atom_site_fract_x
_atom_site_fract_y
_atom_site_fract_z
V1    V   0.07247  0.25000  0.25000
V2    V   0.07247  0.25000  0.75000
V3    V   0.07247  0.75000  0.25000
V4    V   0.07247  0.75000  0.75000
V5    V   0.25000  0.07247  0.25000
V6    V   0.25000  0.07247  0.75000
V7    V   0.25000  0.25000  0.07247
V8    V   0.25000  0.25000  0.42753
V9    V   0.25000  0.25000  0.57247
V10   V   0.25000  0.25000  0.92753
V11   V   0.25000  0.42753  0.25000
V12   V   0.25000  0.42753  0.75000
V13   V   0.25000  0.57247  0.25000
V14   V   0.25000  0.57247  0.75000
V15   V   0.25000  0.75000  0.07247
V16   V   0.25000  0.75000  0.42753
V17   V   0.25000  0.75000  0.57247
V18   V   0.25000  0.75000  0.92753
V19   V   0.25000  0.92753  0.25000
V20   V   0.25000  0.92753  0.75000
V21   V   0.42753  0.25000  0.25000
V22   V   0.42753  0.25000  0.75000
V23   V   0.42753  0.75000  0.25000
V24   V   0.42753  0.75000  0.75000
V25   V   0.57247  0.25000  0.25000
V26   V   0.57247  0.25000  0.75000
V27   V   0.57247  0.75000  0.25000
V28   V   0.57247  0.75000  0.75000
V29   V   0.75000  0.07247  0.25000
V30   V   0.75000  0.07247  0.75000
V31   V   0.75000  0.25000  0.07247
V32   V   0.75000  0.25000  0.42753
V33   V   0.75000  0.25000  0.57247
V34   V   0.75000  0.25000  0.92753
V35   V   0.75000  0.42753  0.25000
V36   V   0.75000  0.42753  0.75000
V37   V   0.75000  0.57247  0.25000
V38   V   0.75000  0.57247  0.75000
V39   V   0.75000  0.75000  0.07247
V40   V   0.75000  0.75000  0.42753
V41   V   0.75000  0.75000  0.57247
V42   V   0.75000  0.75000  0.92753
V43   V   0.75000  0.92753  0.25000
V44   V   0.75000  0.92753  0.75000
V45   V   0.92753  0.25000  0.25000
V46   V   0.92753  0.25000  0.75000
V47   V   0.92753  0.75000  0.25000
V48   V   0.92753  0.75000  0.75000
EC1    EC   0.19067  0.19067  0.19067
EC2    EC   0.19067  0.19067  0.80933
EC3    EC   0.19067  0.30933  0.30933
EC4    EC   0.19067  0.30933  0.69067
EC5    EC   0.19067  0.69067  0.30933
EC6    EC   0.19067  0.69067  0.69067
EC7    EC   0.19067  0.80933  0.19067
EC8    EC   0.19067  0.80933  0.80933
EC9    EC   0.30933  0.19067  0.30933
EC10   EC   0.30933  0.19067  0.69067
EC11   EC   0.30933  0.30933  0.19067
EC12   EC   0.30933  0.30933  0.80933
EC13   EC   0.30933  0.69067  0.19067
EC14   EC   0.30933  0.69067  0.80933
EC15   EC   0.30933  0.80933  0.30933
EC16   EC   0.30933  0.80933  0.69067
EC17   EC   0.69067  0.19067  0.30933
EC18   EC   0.69067  0.19067  0.69067
EC19   EC   0.69067  0.30933  0.19067
EC20   EC   0.69067  0.30933  0.80933
EC21   EC   0.69067  0.69067  0.19067
EC22   EC   0.69067  0.69067  0.80933
EC23   EC   0.69067  0.80933  0.30933
EC24   EC   0.69067  0.80933  0.69067
EC25   EC   0.80933  0.19067  0.19067
EC26   EC   0.80933  0.19067  0.80933
EC27   EC   0.80933  0.30933  0.30933
EC28   EC   0.80933  0.30933  0.69067
EC29   EC   0.80933  0.69067  0.30933
EC30   EC   0.80933  0.69067  0.69067
EC31   EC   0.80933  0.80933  0.19067
EC32   EC   0.80933  0.80933  0.80933
E1    E   0.00000  0.25000  0.25000
E2    E   0.00000  0.25000  0.75000
E3    E   0.00000  0.75000  0.25000
E4    E   0.00000  0.75000  0.75000
E5    E   0.13157  0.22034  0.22034
E6    E   0.13157  0.22034  0.77966
E7    E   0.13157  0.27966  0.27966
E8    E   0.13157  0.27966  0.72034
E9    E   0.13157  0.72034  0.27966
E10   E   0.13157  0.72034  0.72034
E11   E   0.13157  0.77966  0.22034
E12   E   0.13157  0.77966  0.77966
E13   E   0.22034  0.13157  0.22034
E14   E   0.22034  0.13157  0.77966
E15   E   0.22034  0.22034  0.13157
E16   E   0.22034  0.22034  0.86843
E17   E   0.22034  0.27966  0.36843
E18   E   0.22034  0.27966  0.63157
E19   E   0.22034  0.36843  0.27966
E20   E   0.22034  0.36843  0.72034
E21   E   0.22034  0.63157  0.27966
E22   E   0.22034  0.63157  0.72034
E23   E   0.22034  0.72034  0.36843
E24   E   0.22034  0.72034  0.63157
E25   E   0.22034  0.77966  0.13157
E26   E   0.22034  0.77966  0.86843
E27   E   0.22034  0.86843  0.22034
E28   E   0.22034  0.86843  0.77966
E29   E   0.25000  0.00000  0.25000
E30   E   0.25000  0.00000  0.75000
E31   E   0.25000  0.25000  0.00000
E32   E   0.25000  0.25000  0.50000
E33   E   0.25000  0.50000  0.25000
E34   E   0.25000  0.50000  0.75000
E35   E   0.25000  0.75000  0.00000
E36   E   0.25000  0.75000  0.50000
E37   E   0.27966  0.13157  0.27966
E38   E   0.27966  0.13157  0.72034
E39   E   0.27966  0.22034  0.36843
E40   E   0.27966  0.22034  0.63157
E41   E   0.27966  0.27966  0.13157
E42   E   0.27966  0.27966  0.86843
E43   E   0.27966  0.36843  0.22034
E44   E   0.27966  0.36843  0.77966
E45   E   0.27966  0.63157  0.22034
E46   E   0.27966  0.63157  0.77966
E47   E   0.27966  0.72034  0.13157
E48   E   0.27966  0.72034  0.86843
E49   E   0.27966  0.77966  0.36843
E50   E   0.27966  0.77966  0.63157
E51   E   0.27966  0.86843  0.27966
E52   E   0.27966  0.86843  0.72034
E53   E   0.36843  0.22034  0.27966
E54   E   0.36843  0.22034  0.72034
E55   E   0.36843  0.27966  0.22034
E56   E   0.36843  0.27966  0.77966
E57   E   0.36843  0.72034  0.22034
E58   E   0.36843  0.72034  0.77966
E59   E   0.36843  0.77966  0.27966
E60   E   0.36843  0.77966  0.72034
E61   E   0.50000  0.25000  0.25000
E62   E   0.50000  0.25000  0.75000
E63   E   0.50000  0.75000  0.25000
E64   E   0.50000  0.75000  0.75000
E65   E   0.63157  0.22034  0.27966
E66   E   0.63157  0.22034  0.72034
E67   E   0.63157  0.27966  0.22034
E68   E   0.63157  0.27966  0.77966
E69   E   0.63157  0.72034  0.22034
E70   E   0.63157  0.72034  0.77966
E71   E   0.63157  0.77966  0.27966
E72   E   0.63157  0.77966  0.72034
E73   E   0.72034  0.13157  0.27966
E74   E   0.72034  0.13157  0.72034
E75   E   0.72034  0.22034  0.36843
E76   E   0.72034  0.22034  0.63157
E77   E   0.72034  0.27966  0.13157
E78   E   0.72034  0.27966  0.86843
E79   E   0.72034  0.36843  0.22034
E80   E   0.72034  0.36843  0.77966
E81   E   0.72034  0.63157  0.22034
E82   E   0.72034  0.63157  0.77966
E83   E   0.72034  0.72034  0.13157
E84   E   0.72034  0.72034  0.86843
E85   E   0.72034  0.77966  0.36843
E86   E   0.72034  0.77966  0.63157
E87   E   0.72034  0.86843  0.27966
E88   E   0.72034  0.86843  0.72034
E89   E   0.75000  0.00000  0.25000
E90   E   0.75000  0.00000  0.75000
E91   E   0.75000  0.25000  0.00000
E92   E   0.75000  0.25000  0.50000
E93   E   0.75000  0.50000  0.25000
E94   E   0.75000  0.50000  0.75000
E95   E   0.75000  0.75000  0.00000
E96   E   0.75000  0.75000  0.50000
E97   E   0.77966  0.13157  0.22034
E98   E   0.77966  0.13157  0.77966
E99   E   0.77966  0.22034  0.13157
E100  E   0.77966  0.22034  0.86843
E101  E   0.77966  0.27966  0.36843
E102  E   0.77966  0.27966  0.63157
E103  E   0.77966  0.36843  0.27966
E104  E   0.77966  0.36843  0.72034
E105  E   0.77966  0.63157  0.27966
E106  E   0.77966  0.63157  0.72034
E107  E   0.77966  0.72034  0.36843
E108  E   0.77966  0.72034  0.63157
E109  E   0.77966  0.77966  0.13157
E110  E   0.77966  0.77966  0.86843
E111  E   0.77966  0.86843  0.22034
E112  E   0.77966  0.86843  0.77966
E113  E   0.86843  0.22034  0.22034
E114  E   0.86843  0.22034  0.77966
E115  E   0.86843  0.27966  0.27966
E116  E   0.86843  0.27966  0.72034
E117  E   0.86843  0.72034  0.27966
E118  E   0.86843  0.72034  0.72034
E119  E   0.86843  0.77966  0.22034
E120  E   0.86843  0.77966  0.77966
loop_
