data_teo_I4132  hall_number: 510, V_con: 8
_audit_creation_date              2025-03-06
_audit_creation_method            'MOFbuilder_1.0'
_symmetry_space_group_name_H-M    'P1'
_symmetry_Int_Tables_number       1
_symmetry_cell_setting            triclinic
loop_
_symmetry_equiv_pos_as_xyz
  x,y,z
_cell_length_a                    28.142
_cell_length_b                    28.142
_cell_length_c                    28.142
_cell_angle_alpha                 90.0
_cell_angle_beta                  90.0
_cell_angle_gamma                 90.0
loop_
_atom_site_label
_atom_site_type_symbol
_atom_site_fract_x
_atom_site_fract_y
_atom_site_fract_z
V1    V   0.00000  0.25000  0.29691
V2    V   0.00000  0.25000  0.95309
V3    V   0.00000  0.75000  0.20309
V4    V   0.00000  0.75000  0.54691
V5    V   0.04691  0.50000  0.25000
V6    V   0.20309  0.00000  0.75000
V7    V   0.25000  0.04691  0.50000
V8    V   0.25000  0.29691  0.00000
V9    V   0.25000  0.70309  0.50000
V10   V   0.25000  0.95309  0.00000
V11   V   0.29691  0.00000  0.25000
V12   V   0.45309  0.50000  0.75000
V13   V   0.50000  0.25000  0.04691
V14   V   0.50000  0.25000  0.70309
V15   V   0.50000  0.75000  0.45309
V16   V   0.50000  0.75000  0.79691
V17   V   0.54691  0.00000  0.75000
V18   V   0.70309  0.50000  0.25000
V19   V   0.75000  0.20309  0.00000
V20   V   0.75000  0.45309  0.50000
V21   V   0.75000  0.54691  0.00000
V22   V   0.75000  0.79691  0.50000
V23   V   0.79691  0.50000  0.75000
V24   V   0.95309  0.00000  0.25000
E1    E   0.02345  0.37500  0.10155
E2    E   0.02345  0.37500  0.27345
E3    E   0.02345  0.62500  0.22655
E4    E   0.02345  0.62500  0.39845
E5    E   0.02345  0.37500  0.27345
E6    E   0.02345  0.62500  0.22655
E7    E   0.10155  0.12500  0.85155
E8    E   0.10155  0.87500  0.64845
E9    E   0.10155  0.02345  0.37500
E10   E   0.10155  0.12500  0.85155
E11   E   0.10155  0.87500  0.64845
E12   E   0.10155  0.97655  0.12500
E13   E   0.12500  0.10155  0.97655
E14   E   0.12500  0.14845  0.39845
E15   E   0.12500  0.14845  0.39845
E16   E   0.12500  0.27345  0.97655
E17   E   0.12500  0.27345  0.14845
E18   E   0.12500  0.27345  0.97655
E19   E   0.12500  0.72655  0.35155
E20   E   0.12500  0.72655  0.52345
E21   E   0.12500  0.85155  0.10155
E22   E   0.12500  0.85155  0.10155
E23   E   0.12500  0.89845  0.52345
E24   E   0.14845  0.39845  0.12500
E25   E   0.14845  0.60155  0.37500
E26   E   0.14845  0.12500  0.27345
E27   E   0.14845  0.39845  0.12500
E28   E   0.14845  0.60155  0.37500
E29   E   0.14845  0.87500  0.22655
E30   E   0.22655  0.02345  0.62500
E31   E   0.22655  0.14845  0.87500
E32   E   0.22655  0.85155  0.62500
E33   E   0.22655  0.97655  0.87500
E34   E   0.22655  0.02345  0.62500
E35   E   0.22655  0.97655  0.87500
E36   E   0.27345  0.02345  0.37500
E37   E   0.27345  0.97655  0.12500
E38   E   0.27345  0.02345  0.37500
E39   E   0.27345  0.14845  0.12500
E40   E   0.27345  0.85155  0.37500
E41   E   0.27345  0.97655  0.12500
E42   E   0.35155  0.39845  0.87500
E43   E   0.35155  0.60155  0.62500
E44   E   0.35155  0.12500  0.72655
E45   E   0.35155  0.39845  0.87500
E46   E   0.35155  0.60155  0.62500
E47   E   0.35155  0.87500  0.77345
E48   E   0.37500  0.10155  0.02345
E49   E   0.37500  0.14845  0.60155
E50   E   0.37500  0.14845  0.60155
E51   E   0.37500  0.27345  0.02345
E52   E   0.37500  0.27345  0.02345
E53   E   0.37500  0.27345  0.85155
E54   E   0.37500  0.72655  0.47655
E55   E   0.37500  0.72655  0.47655
E56   E   0.37500  0.72655  0.64845
E57   E   0.37500  0.85155  0.89845
E58   E   0.37500  0.89845  0.47655
E59   E   0.39845  0.02345  0.62500
E60   E   0.39845  0.12500  0.14845
E61   E   0.39845  0.87500  0.35155
E62   E   0.39845  0.97655  0.87500
E63   E   0.39845  0.12500  0.14845
E64   E   0.39845  0.87500  0.35155
E65   E   0.47655  0.37500  0.72655
E66   E   0.47655  0.37500  0.89845
E67   E   0.47655  0.62500  0.60155
E68   E   0.47655  0.62500  0.77345
E69   E   0.47655  0.37500  0.72655
E70   E   0.47655  0.62500  0.77345
E71   E   0.52345  0.12500  0.72655
E72   E   0.52345  0.12500  0.89845
E73   E   0.52345  0.87500  0.60155
E74   E   0.52345  0.87500  0.77345
E75   E   0.60155  0.37500  0.14845
E76   E   0.60155  0.37500  0.14845
E77   E   0.60155  0.47655  0.62500
E78   E   0.60155  0.52345  0.87500
E79   E   0.60155  0.62500  0.35155
E80   E   0.60155  0.62500  0.35155
E81   E   0.62500  0.22655  0.02345
E82   E   0.62500  0.22655  0.85155
E83   E   0.62500  0.22655  0.02345
E84   E   0.62500  0.35155  0.60155
E85   E   0.62500  0.35155  0.60155
E86   E   0.62500  0.39845  0.02345
E87   E   0.62500  0.60155  0.47655
E88   E   0.62500  0.64845  0.89845
E89   E   0.62500  0.77345  0.47655
E90   E   0.62500  0.77345  0.47655
E91   E   0.62500  0.77345  0.64845
E92   E   0.64845  0.10155  0.87500
E93   E   0.64845  0.10155  0.87500
E94   E   0.64845  0.37500  0.72655
E95   E   0.64845  0.62500  0.77345
E96   E   0.64845  0.89845  0.62500
E97   E   0.72655  0.35155  0.12500
E98   E   0.72655  0.47655  0.37500
E99   E   0.72655  0.47655  0.37500
E100  E   0.72655  0.52345  0.12500
E101  E   0.72655  0.64845  0.37500
E102  E   0.77345  0.35155  0.87500
E103  E   0.77345  0.47655  0.62500
E104  E   0.77345  0.47655  0.62500
E105  E   0.77345  0.52345  0.87500
E106  E   0.77345  0.64845  0.62500
E107  E   0.85155  0.10155  0.12500
E108  E   0.85155  0.10155  0.12500
E109  E   0.85155  0.37500  0.27345
E110  E   0.85155  0.62500  0.22655
E111  E   0.85155  0.89845  0.37500
E112  E   0.87500  0.22655  0.14845
E113  E   0.87500  0.22655  0.97655
E114  E   0.87500  0.22655  0.97655
E115  E   0.87500  0.35155  0.39845
E116  E   0.87500  0.35155  0.39845
E117  E   0.87500  0.39845  0.97655
E118  E   0.87500  0.60155  0.52345
E119  E   0.87500  0.64845  0.10155
E120  E   0.87500  0.64845  0.10155
E121  E   0.87500  0.77345  0.35155
E122  E   0.87500  0.77345  0.52345
E123  E   0.89845  0.37500  0.85155
E124  E   0.89845  0.47655  0.37500
E125  E   0.89845  0.52345  0.12500
E126  E   0.89845  0.62500  0.64845
E127  E   0.97655  0.12500  0.10155
E128  E   0.97655  0.12500  0.27345
E129  E   0.97655  0.12500  0.27345
E130  E   0.97655  0.87500  0.22655
E131  E   0.97655  0.87500  0.22655
E132  E   0.97655  0.87500  0.39845
loop_
