data_thf_Pm-3m  hall_number: 517, V_con: 5, EC_con: 3
_audit_creation_date              2025-03-06
_audit_creation_method            'MOFbuilder_1.0'
_symmetry_space_group_name_H-M    'P1'
_symmetry_Int_Tables_number       1
_symmetry_cell_setting            triclinic
loop_
_symmetry_equiv_pos_as_xyz
  x,y,z
_cell_length_a                    34.4949
_cell_length_b                    34.4949
_cell_length_c                    34.4949
_cell_angle_alpha                 90.0
_cell_angle_beta                  90.0
_cell_angle_gamma                 90.0
loop_
_atom_site_label
_atom_site_type_symbol
_atom_site_fract_x
_atom_site_fract_y
_atom_site_fract_z
V1    V   0.14495  0.50000  0.50000
V2    V   0.50000  0.14495  0.50000
V3    V   0.50000  0.50000  0.14495
V4    V   0.50000  0.50000  0.85505
V5    V   0.50000  0.85505  0.50000
V6    V   0.85505  0.50000  0.50000
EC1    EC   0.38159  0.38159  0.38159
EC2    EC   0.38159  0.38159  0.61841
EC3    EC   0.38159  0.61841  0.38159
EC4    EC   0.38159  0.61841  0.61841
EC5    EC   0.61841  0.38159  0.38159
EC6    EC   0.61841  0.38159  0.61841
EC7    EC   0.61841  0.61841  0.38159
EC8    EC   0.61841  0.61841  0.61841
E1    E   0.00000  0.50000  0.50000
E2    E   0.26327  0.44079  0.44079
E3    E   0.26327  0.44079  0.55921
E4    E   0.26327  0.55921  0.44079
E5    E   0.26327  0.55921  0.55921
E6    E   0.44079  0.26327  0.44079
E7    E   0.44079  0.26327  0.55921
E8    E   0.44079  0.44079  0.26327
E9    E   0.44079  0.44079  0.73673
E10   E   0.44079  0.55921  0.26327
E11   E   0.44079  0.55921  0.73673
E12   E   0.44079  0.73673  0.44079
E13   E   0.44079  0.73673  0.55921
E14   E   0.50000  0.00000  0.50000
E15   E   0.50000  0.50000  0.00000
E16   E   0.55921  0.26327  0.44079
E17   E   0.55921  0.26327  0.55921
E18   E   0.55921  0.44079  0.26327
E19   E   0.55921  0.44079  0.73673
E20   E   0.55921  0.55921  0.26327
E21   E   0.55921  0.55921  0.73673
E22   E   0.55921  0.73673  0.44079
E23   E   0.55921  0.73673  0.55921
E24   E   0.73673  0.44079  0.44079
E25   E   0.73673  0.44079  0.55921
E26   E   0.73673  0.55921  0.44079
E27   E   0.73673  0.55921  0.55921
loop_
