data_toc-e_Pn-3m:2  hall_number: 522, V_con: 7
_audit_creation_date              2025-03-06
_audit_creation_method            'MOFbuilder_1.0'
_symmetry_space_group_name_H-M    'P1'
_symmetry_Int_Tables_number       1
_symmetry_cell_setting            triclinic
loop_
_symmetry_equiv_pos_as_xyz
  x,y,z
_cell_length_a                    30.1199
_cell_length_b                    30.1199
_cell_length_c                    30.1199
_cell_angle_alpha                 90.0
_cell_angle_beta                  90.0
_cell_angle_gamma                 90.0
loop_
_atom_site_label
_atom_site_type_symbol
_atom_site_fract_x
_atom_site_fract_y
_atom_site_fract_z
V1    V   0.10203  0.64949  0.64949
V2    V   0.10203  0.85051  0.85051
V3    V   0.14949  0.14949  0.89797
V4    V   0.14949  0.35051  0.60203
V5    V   0.14949  0.60203  0.35051
V6    V   0.14949  0.89797  0.14949
V7    V   0.35051  0.14949  0.60203
V8    V   0.35051  0.35051  0.89797
V9    V   0.35051  0.60203  0.14949
V10   V   0.35051  0.89797  0.35051
V11   V   0.39797  0.64949  0.85051
V12   V   0.39797  0.85051  0.64949
V13   V   0.60203  0.14949  0.35051
V14   V   0.60203  0.35051  0.14949
V15   V   0.64949  0.10203  0.64949
V16   V   0.64949  0.39797  0.85051
V17   V   0.64949  0.64949  0.10203
V18   V   0.64949  0.85051  0.39797
V19   V   0.85051  0.10203  0.85051
V20   V   0.85051  0.39797  0.64949
V21   V   0.85051  0.64949  0.39797
V22   V   0.85051  0.85051  0.10203
V23   V   0.89797  0.14949  0.14949
V24   V   0.89797  0.35051  0.35051
E1    E   0.00000  0.12576  0.87424
E2    E   0.00000  0.12576  0.87424
E3    E   0.00000  0.37424  0.62576
E4    E   0.00000  0.62576  0.37424
E5    E   0.00000  0.87424  0.12576
E6    E   0.00000  0.87424  0.12576
E7    E   0.02373  0.02373  0.14949
E8    E   0.02373  0.14949  0.02373
E9    E   0.02373  0.35051  0.47627
E10   E   0.02373  0.47627  0.35051
E11   E   0.10203  0.75000  0.75000
E12   E   0.12576  0.00000  0.87424
E13   E   0.12576  0.50000  0.62576
E14   E   0.12576  0.62576  0.50000
E15   E   0.12576  0.87424  0.00000
E16   E   0.12576  0.00000  0.87424
E17   E   0.12576  0.50000  0.62576
E18   E   0.12576  0.62576  0.50000
E19   E   0.12576  0.87424  0.00000
E20   E   0.14949  0.02373  0.02373
E21   E   0.14949  0.25000  0.75000
E22   E   0.14949  0.47627  0.47627
E23   E   0.14949  0.75000  0.25000
E24   E   0.25000  0.14949  0.75000
E25   E   0.25000  0.25000  0.60203
E26   E   0.25000  0.25000  0.89797
E27   E   0.25000  0.35051  0.75000
E28   E   0.25000  0.60203  0.25000
E29   E   0.25000  0.64949  0.75000
E30   E   0.25000  0.75000  0.14949
E31   E   0.25000  0.75000  0.35051
E32   E   0.25000  0.75000  0.64949
E33   E   0.25000  0.75000  0.85051
E34   E   0.25000  0.85051  0.75000
E35   E   0.25000  0.89797  0.25000
E36   E   0.35051  0.02373  0.47627
E37   E   0.35051  0.25000  0.75000
E38   E   0.35051  0.47627  0.02373
E39   E   0.35051  0.75000  0.25000
E40   E   0.37424  0.00000  0.62576
E41   E   0.37424  0.50000  0.87424
E42   E   0.37424  0.62576  0.00000
E43   E   0.37424  0.87424  0.50000
E44   E   0.39797  0.75000  0.75000
E45   E   0.47627  0.02373  0.35051
E46   E   0.47627  0.14949  0.47627
E47   E   0.47627  0.35051  0.02373
E48   E   0.47627  0.47627  0.14949
E49   E   0.50000  0.12576  0.62576
E50   E   0.50000  0.12576  0.62576
E51   E   0.50000  0.37424  0.87424
E52   E   0.50000  0.62576  0.12576
E53   E   0.50000  0.62576  0.12576
E54   E   0.50000  0.87424  0.37424
E55   E   0.52373  0.52373  0.85051
E56   E   0.52373  0.64949  0.97627
E57   E   0.52373  0.85051  0.52373
E58   E   0.52373  0.97627  0.64949
E59   E   0.60203  0.25000  0.25000
E60   E   0.62576  0.00000  0.37424
E61   E   0.62576  0.12576  0.50000
E62   E   0.62576  0.12576  0.50000
E63   E   0.62576  0.37424  0.00000
E64   E   0.62576  0.50000  0.12576
E65   E   0.62576  0.50000  0.12576
E66   E   0.64949  0.25000  0.75000
E67   E   0.64949  0.52373  0.97627
E68   E   0.64949  0.75000  0.25000
E69   E   0.64949  0.97627  0.52373
E70   E   0.75000  0.10203  0.75000
E71   E   0.75000  0.14949  0.25000
E72   E   0.75000  0.25000  0.14949
E73   E   0.75000  0.25000  0.35051
E74   E   0.75000  0.25000  0.64949
E75   E   0.75000  0.25000  0.85051
E76   E   0.75000  0.35051  0.25000
E77   E   0.75000  0.39797  0.75000
E78   E   0.75000  0.64949  0.25000
E79   E   0.75000  0.75000  0.10203
E80   E   0.75000  0.75000  0.39797
E81   E   0.75000  0.85051  0.25000
E82   E   0.85051  0.25000  0.75000
E83   E   0.85051  0.52373  0.52373
E84   E   0.85051  0.75000  0.25000
E85   E   0.85051  0.97627  0.97627
E86   E   0.87424  0.00000  0.12576
E87   E   0.87424  0.00000  0.12576
E88   E   0.87424  0.12576  0.00000
E89   E   0.87424  0.12576  0.00000
E90   E   0.87424  0.37424  0.50000
E91   E   0.87424  0.50000  0.37424
E92   E   0.89797  0.25000  0.25000
E93   E   0.97627  0.52373  0.64949
E94   E   0.97627  0.64949  0.52373
E95   E   0.97627  0.85051  0.97627
E96   E   0.97627  0.97627  0.85051
loop_
