data_toc-a_Pn-3m:2  hall_number: 522, V_con: 5, EC_con: 4
_audit_creation_date              2025-03-06
_audit_creation_method            'MOFbuilder_1.0'
_symmetry_space_group_name_H-M    'P1'
_symmetry_Int_Tables_number       1
_symmetry_cell_setting            triclinic
loop_
_symmetry_equiv_pos_as_xyz
  x,y,z
_cell_length_a                    52.5179
_cell_length_b                    52.5179
_cell_length_c                    52.5179
_cell_angle_alpha                 90.0
_cell_angle_beta                  90.0
_cell_angle_gamma                 90.0
loop_
_atom_site_label
_atom_site_type_symbol
_atom_site_fract_x
_atom_site_fract_y
_atom_site_fract_z
V1    V   0.04488  0.58976  0.91024
V2    V   0.04488  0.91024  0.58976
V3    V   0.08976  0.08976  0.54488
V4    V   0.08976  0.41024  0.95512
V5    V   0.08976  0.54488  0.08976
V6    V   0.08976  0.95512  0.41024
V7    V   0.41024  0.08976  0.95512
V8    V   0.41024  0.41024  0.54488
V9    V   0.41024  0.54488  0.41024
V10   V   0.41024  0.95512  0.08976
V11   V   0.45512  0.58976  0.58976
V12   V   0.45512  0.91024  0.91024
V13   V   0.54488  0.08976  0.08976
V14   V   0.54488  0.41024  0.41024
V15   V   0.58976  0.04488  0.91024
V16   V   0.58976  0.45512  0.58976
V17   V   0.58976  0.58976  0.45512
V18   V   0.58976  0.91024  0.04488
V19   V   0.91024  0.04488  0.58976
V20   V   0.91024  0.45512  0.91024
V21   V   0.91024  0.58976  0.04488
V22   V   0.91024  0.91024  0.45512
V23   V   0.95512  0.08976  0.41024
V24   V   0.95512  0.41024  0.08976
EC1    EC   0.18268  0.68268  0.81732
EC2    EC   0.18268  0.81732  0.68268
EC3    EC   0.18268  0.18268  0.68268
EC4    EC   0.18268  0.31732  0.81732
EC5    EC   0.18268  0.68268  0.18268
EC6    EC   0.18268  0.81732  0.31732
EC7    EC   0.31732  0.18268  0.81732
EC8    EC   0.31732  0.31732  0.68268
EC9    EC   0.31732  0.68268  0.31732
EC10   EC   0.31732  0.81732  0.18268
EC11   EC   0.31732  0.68268  0.68268
EC12   EC   0.31732  0.81732  0.81732
EC13   EC   0.68268  0.18268  0.81732
EC14   EC   0.68268  0.18268  0.18268
EC15   EC   0.68268  0.31732  0.31732
EC16   EC   0.68268  0.31732  0.68268
EC17   EC   0.68268  0.68268  0.31732
EC18   EC   0.68268  0.81732  0.18268
EC19   EC   0.81732  0.18268  0.68268
EC20   EC   0.81732  0.18268  0.31732
EC21   EC   0.81732  0.31732  0.18268
EC22   EC   0.81732  0.31732  0.81732
EC23   EC   0.81732  0.68268  0.18268
EC24   EC   0.81732  0.81732  0.31732
E1    E   0.00000  0.06732  0.56732
E2    E   0.00000  0.06732  0.56732
E3    E   0.00000  0.43268  0.93268
E4    E   0.00000  0.43268  0.93268
E5    E   0.00000  0.56732  0.06732
E6    E   0.00000  0.56732  0.06732
E7    E   0.00000  0.93268  0.43268
E8    E   0.00000  0.93268  0.43268
E9    E   0.02244  0.02244  0.41024
E10   E   0.02244  0.08976  0.47756
E11   E   0.02244  0.41024  0.02244
E12   E   0.02244  0.47756  0.08976
E13   E   0.02244  0.02244  0.41024
E14   E   0.02244  0.08976  0.47756
E15   E   0.02244  0.41024  0.02244
E16   E   0.02244  0.47756  0.08976
E17   E   0.06732  0.00000  0.56732
E18   E   0.06732  0.50000  0.93268
E19   E   0.06732  0.56732  0.00000
E20   E   0.06732  0.93268  0.50000
E21   E   0.06732  0.00000  0.56732
E22   E   0.06732  0.50000  0.93268
E23   E   0.06732  0.56732  0.00000
E24   E   0.06732  0.93268  0.50000
E25   E   0.08976  0.02244  0.47756
E26   E   0.08976  0.02244  0.47756
E27   E   0.08976  0.47756  0.02244
E28   E   0.08976  0.47756  0.02244
E29   E   0.11378  0.63622  0.86378
E30   E   0.11378  0.86378  0.63622
E31   E   0.13622  0.13622  0.61378
E32   E   0.13622  0.36378  0.88622
E33   E   0.13622  0.61378  0.13622
E34   E   0.13622  0.88622  0.36378
E35   E   0.18268  0.75000  0.75000
E36   E   0.18268  0.25000  0.75000
E37   E   0.18268  0.75000  0.25000
E38   E   0.25000  0.18268  0.75000
E39   E   0.25000  0.25000  0.68268
E40   E   0.25000  0.25000  0.81732
E41   E   0.25000  0.31732  0.75000
E42   E   0.25000  0.68268  0.25000
E43   E   0.25000  0.68268  0.75000
E44   E   0.25000  0.75000  0.18268
E45   E   0.25000  0.75000  0.31732
E46   E   0.25000  0.75000  0.68268
E47   E   0.25000  0.75000  0.81732
E48   E   0.25000  0.81732  0.25000
E49   E   0.25000  0.81732  0.75000
E50   E   0.31732  0.25000  0.75000
E51   E   0.31732  0.75000  0.25000
E52   E   0.31732  0.75000  0.75000
E53   E   0.36378  0.13622  0.88622
E54   E   0.36378  0.36378  0.61378
E55   E   0.36378  0.61378  0.36378
E56   E   0.36378  0.88622  0.13622
E57   E   0.38622  0.63622  0.63622
E58   E   0.38622  0.86378  0.86378
E59   E   0.41024  0.02244  0.02244
E60   E   0.41024  0.02244  0.02244
E61   E   0.41024  0.47756  0.47756
E62   E   0.43268  0.00000  0.93268
E63   E   0.43268  0.50000  0.56732
E64   E   0.43268  0.56732  0.50000
E65   E   0.43268  0.93268  0.00000
E66   E   0.43268  0.00000  0.93268
E67   E   0.43268  0.50000  0.56732
E68   E   0.43268  0.56732  0.50000
E69   E   0.43268  0.93268  0.00000
E70   E   0.47756  0.02244  0.08976
E71   E   0.47756  0.02244  0.08976
E72   E   0.47756  0.08976  0.02244
E73   E   0.47756  0.08976  0.02244
E74   E   0.47756  0.41024  0.47756
E75   E   0.47756  0.47756  0.41024
E76   E   0.50000  0.06732  0.93268
E77   E   0.50000  0.06732  0.93268
E78   E   0.50000  0.43268  0.56732
E79   E   0.50000  0.43268  0.56732
E80   E   0.50000  0.56732  0.43268
E81   E   0.50000  0.56732  0.43268
E82   E   0.50000  0.93268  0.06732
E83   E   0.50000  0.93268  0.06732
E84   E   0.52244  0.52244  0.58976
E85   E   0.52244  0.58976  0.52244
E86   E   0.52244  0.91024  0.97756
E87   E   0.52244  0.97756  0.91024
E88   E   0.56732  0.00000  0.06732
E89   E   0.56732  0.00000  0.06732
E90   E   0.56732  0.06732  0.00000
E91   E   0.56732  0.06732  0.00000
E92   E   0.56732  0.43268  0.50000
E93   E   0.56732  0.43268  0.50000
E94   E   0.56732  0.50000  0.43268
E95   E   0.56732  0.50000  0.43268
E96   E   0.58976  0.52244  0.52244
E97   E   0.58976  0.97756  0.97756
E98   E   0.61378  0.13622  0.13622
E99   E   0.61378  0.36378  0.36378
E100  E   0.63622  0.11378  0.86378
E101  E   0.63622  0.38622  0.63622
E102  E   0.63622  0.63622  0.38622
E103  E   0.63622  0.86378  0.11378
E104  E   0.68268  0.25000  0.25000
E105  E   0.68268  0.25000  0.75000
E106  E   0.68268  0.75000  0.25000
E107  E   0.75000  0.18268  0.75000
E108  E   0.75000  0.18268  0.25000
E109  E   0.75000  0.25000  0.18268
E110  E   0.75000  0.25000  0.31732
E111  E   0.75000  0.25000  0.68268
E112  E   0.75000  0.25000  0.81732
E113  E   0.75000  0.31732  0.25000
E114  E   0.75000  0.31732  0.75000
E115  E   0.75000  0.68268  0.25000
E116  E   0.75000  0.75000  0.18268
E117  E   0.75000  0.75000  0.31732
E118  E   0.75000  0.81732  0.25000
E119  E   0.81732  0.25000  0.25000
E120  E   0.81732  0.25000  0.75000
E121  E   0.81732  0.75000  0.25000
E122  E   0.86378  0.11378  0.63622
E123  E   0.86378  0.38622  0.86378
E124  E   0.86378  0.63622  0.11378
E125  E   0.86378  0.86378  0.38622
E126  E   0.88622  0.13622  0.36378
E127  E   0.88622  0.36378  0.13622
E128  E   0.91024  0.52244  0.97756
E129  E   0.91024  0.97756  0.52244
E130  E   0.93268  0.00000  0.43268
E131  E   0.93268  0.00000  0.43268
E132  E   0.93268  0.06732  0.50000
E133  E   0.93268  0.06732  0.50000
E134  E   0.93268  0.43268  0.00000
E135  E   0.93268  0.43268  0.00000
E136  E   0.93268  0.50000  0.06732
E137  E   0.93268  0.50000  0.06732
E138  E   0.97756  0.52244  0.91024
E139  E   0.97756  0.58976  0.97756
E140  E   0.97756  0.91024  0.52244
E141  E   0.97756  0.97756  0.58976
loop_
