data_ttr_F-43m  hall_number: 512, V_con: 12, EC_con: 9
_audit_creation_date              2025-03-06
_audit_creation_method            'MOFbuilder_1.0'
_symmetry_space_group_name_H-M    'P1'
_symmetry_Int_Tables_number       1
_symmetry_cell_setting            triclinic
loop_
_symmetry_equiv_pos_as_xyz
  x,y,z
_cell_length_a                    26.0528
_cell_length_b                    26.0528
_cell_length_c                    26.0528
_cell_angle_alpha                 90.0
_cell_angle_beta                  90.0
_cell_angle_gamma                 90.0
loop_
_atom_site_label
_atom_site_type_symbol
_atom_site_fract_x
_atom_site_fract_y
_atom_site_fract_z
V1    V   0.00000  0.00000  0.00000
V2    V   0.00000  0.50000  0.50000
V3    V   0.50000  0.00000  0.50000
V4    V   0.50000  0.50000  0.00000
EC1    EC   0.12655  0.12655  0.62655
EC2    EC   0.12655  0.37345  0.87345
EC3    EC   0.12655  0.62655  0.12655
EC4    EC   0.12655  0.87345  0.37345
EC5    EC   0.12655  0.12655  0.62655
EC6    EC   0.12655  0.12655  0.62655
EC7    EC   0.12655  0.37345  0.87345
EC8    EC   0.12655  0.37345  0.87345
EC9    EC   0.12655  0.62655  0.12655
EC10   EC   0.12655  0.62655  0.12655
EC11   EC   0.12655  0.87345  0.37345
EC12   EC   0.12655  0.87345  0.37345
EC13   EC   0.37345  0.12655  0.87345
EC14   EC   0.37345  0.37345  0.62655
EC15   EC   0.37345  0.62655  0.37345
EC16   EC   0.37345  0.87345  0.12655
EC17   EC   0.37345  0.12655  0.87345
EC18   EC   0.37345  0.12655  0.87345
EC19   EC   0.37345  0.37345  0.62655
EC20   EC   0.37345  0.37345  0.62655
EC21   EC   0.37345  0.62655  0.37345
EC22   EC   0.37345  0.62655  0.37345
EC23   EC   0.37345  0.87345  0.12655
EC24   EC   0.37345  0.87345  0.12655
EC25   EC   0.62655  0.12655  0.12655
EC26   EC   0.62655  0.12655  0.12655
EC27   EC   0.62655  0.37345  0.37345
EC28   EC   0.62655  0.37345  0.37345
EC29   EC   0.62655  0.62655  0.62655
EC30   EC   0.62655  0.62655  0.62655
EC31   EC   0.62655  0.87345  0.87345
EC32   EC   0.62655  0.87345  0.87345
EC33   EC   0.62655  0.12655  0.12655
EC34   EC   0.62655  0.37345  0.37345
EC35   EC   0.62655  0.62655  0.62655
EC36   EC   0.62655  0.87345  0.87345
EC37   EC   0.87345  0.12655  0.37345
EC38   EC   0.87345  0.37345  0.12655
EC39   EC   0.87345  0.62655  0.87345
EC40   EC   0.87345  0.87345  0.62655
EC41   EC   0.87345  0.12655  0.37345
EC42   EC   0.87345  0.12655  0.37345
EC43   EC   0.87345  0.37345  0.12655
EC44   EC   0.87345  0.37345  0.12655
EC45   EC   0.87345  0.62655  0.87345
EC46   EC   0.87345  0.62655  0.87345
EC47   EC   0.87345  0.87345  0.62655
EC48   EC   0.87345  0.87345  0.62655
E1    E   0.00000  0.00000  0.37345
E2    E   0.00000  0.00000  0.62655
E3    E   0.00000  0.12655  0.50000
E4    E   0.00000  0.37345  0.00000
E5    E   0.00000  0.50000  0.12655
E6    E   0.00000  0.50000  0.87345
E7    E   0.00000  0.62655  0.00000
E8    E   0.00000  0.87345  0.50000
E9    E   0.06328  0.06328  0.81328
E10   E   0.06328  0.18672  0.93672
E11   E   0.06328  0.31328  0.56328
E12   E   0.06328  0.43672  0.68672
E13   E   0.06328  0.56328  0.31328
E14   E   0.06328  0.68672  0.43672
E15   E   0.06328  0.81328  0.06328
E16   E   0.06328  0.93672  0.18672
E17   E   0.12655  0.25000  0.75000
E18   E   0.12655  0.75000  0.25000
E19   E   0.12655  0.00000  0.50000
E20   E   0.12655  0.50000  0.00000
E21   E   0.18672  0.06328  0.93672
E22   E   0.18672  0.43672  0.56328
E23   E   0.18672  0.56328  0.43672
E24   E   0.18672  0.93672  0.06328
E25   E   0.25000  0.12655  0.75000
E26   E   0.25000  0.25000  0.62655
E27   E   0.25000  0.25000  0.87345
E28   E   0.25000  0.37345  0.75000
E29   E   0.25000  0.62655  0.25000
E30   E   0.25000  0.75000  0.12655
E31   E   0.25000  0.75000  0.37345
E32   E   0.25000  0.87345  0.25000
E33   E   0.31328  0.06328  0.56328
E34   E   0.31328  0.43672  0.93672
E35   E   0.31328  0.56328  0.06328
E36   E   0.31328  0.93672  0.43672
E37   E   0.37345  0.25000  0.75000
E38   E   0.37345  0.75000  0.25000
E39   E   0.37345  0.00000  0.00000
E40   E   0.37345  0.50000  0.50000
E41   E   0.43672  0.06328  0.68672
E42   E   0.43672  0.18672  0.56328
E43   E   0.43672  0.31328  0.93672
E44   E   0.43672  0.43672  0.81328
E45   E   0.43672  0.56328  0.18672
E46   E   0.43672  0.68672  0.06328
E47   E   0.43672  0.81328  0.43672
E48   E   0.43672  0.93672  0.31328
E49   E   0.50000  0.00000  0.12655
E50   E   0.50000  0.00000  0.87345
E51   E   0.50000  0.12655  0.00000
E52   E   0.50000  0.37345  0.50000
E53   E   0.50000  0.50000  0.37345
E54   E   0.50000  0.50000  0.62655
E55   E   0.50000  0.62655  0.50000
E56   E   0.50000  0.87345  0.00000
E57   E   0.56328  0.06328  0.31328
E58   E   0.56328  0.18672  0.43672
E59   E   0.56328  0.31328  0.06328
E60   E   0.56328  0.43672  0.18672
E61   E   0.56328  0.56328  0.81328
E62   E   0.56328  0.68672  0.93672
E63   E   0.56328  0.81328  0.56328
E64   E   0.56328  0.93672  0.68672
E65   E   0.62655  0.00000  0.00000
E66   E   0.62655  0.50000  0.50000
E67   E   0.62655  0.25000  0.25000
E68   E   0.62655  0.75000  0.75000
E69   E   0.68672  0.06328  0.43672
E70   E   0.68672  0.43672  0.06328
E71   E   0.68672  0.56328  0.93672
E72   E   0.68672  0.93672  0.56328
E73   E   0.75000  0.12655  0.25000
E74   E   0.75000  0.25000  0.12655
E75   E   0.75000  0.25000  0.37345
E76   E   0.75000  0.37345  0.25000
E77   E   0.75000  0.62655  0.75000
E78   E   0.75000  0.75000  0.62655
E79   E   0.75000  0.75000  0.87345
E80   E   0.75000  0.87345  0.75000
E81   E   0.81328  0.06328  0.06328
E82   E   0.81328  0.43672  0.43672
E83   E   0.81328  0.56328  0.56328
E84   E   0.81328  0.93672  0.93672
E85   E   0.87345  0.25000  0.25000
E86   E   0.87345  0.75000  0.75000
E87   E   0.87345  0.00000  0.50000
E88   E   0.87345  0.50000  0.00000
E89   E   0.93672  0.06328  0.18672
E90   E   0.93672  0.18672  0.06328
E91   E   0.93672  0.31328  0.43672
E92   E   0.93672  0.43672  0.31328
E93   E   0.93672  0.56328  0.68672
E94   E   0.93672  0.68672  0.56328
E95   E   0.93672  0.81328  0.93672
E96   E   0.93672  0.93672  0.81328
loop_
