data_ttw_P6/mmm  hall_number: 485, V_con: 5
_audit_creation_date              2025-03-06
_audit_creation_method            'MOFbuilder_1.0'
_symmetry_space_group_name_H-M    'P1'
_symmetry_Int_Tables_number       1
_symmetry_cell_setting            triclinic
loop_
_symmetry_equiv_pos_as_xyz
  x,y,z
_cell_length_a                    37.3204
_cell_length_b                    37.3204
_cell_length_c                    10.0
_cell_angle_alpha                 90.0
_cell_angle_beta                  90.0
_cell_angle_gamma                 120.0
loop_
_atom_site_label
_atom_site_type_symbol
_atom_site_fract_x
_atom_site_fract_y
_atom_site_fract_z
V1    V   0.15470  0.57735  0.00000
V2    V   0.42265  0.57735  0.00000
V3    V   0.42265  0.84530  0.00000
V4    V   0.42265  0.57735  0.00000
V5    V   0.42265  0.84530  0.00000
V6    V   0.57735  0.15470  0.00000
V7    V   0.57735  0.42265  0.00000
V8    V   0.57735  0.42265  0.00000
V9    V   0.84530  0.42265  0.00000
V10   V   0.84530  0.42265  0.00000
E1    E   0.00000  0.50000  0.00000
E2    E   0.15470  0.57735  0.50000
E3    E   0.28867  0.57735  0.00000
E4    E   0.28867  0.71132  0.00000
E5    E   0.28868  0.57735  0.00000
E6    E   0.28868  0.71133  0.00000
E7    E   0.42265  0.57735  0.50000
E8    E   0.42265  0.71132  0.00000
E9    E   0.42265  0.71133  0.00000
E10   E   0.42265  0.84530  0.50000
E11   E   0.42265  0.57735  0.50000
E12   E   0.42265  0.84530  0.50000
E13   E   0.50000  0.00000  0.00000
E14   E   0.50000  0.50000  0.00000
E15   E   0.57735  0.15470  0.50000
E16   E   0.57735  0.28867  0.00000
E17   E   0.57735  0.28868  0.00000
E18   E   0.57735  0.42265  0.50000
E19   E   0.57735  0.42265  0.50000
E20   E   0.71132  0.28867  0.00000
E21   E   0.71132  0.42265  0.00000
E22   E   0.71133  0.28868  0.00000
E23   E   0.71133  0.42265  0.00000
E24   E   0.84530  0.42265  0.50000
E25   E   0.84530  0.42265  0.50000
loop_
