data_uki_I-42d  hall_number: 399, V_con: 4
_audit_creation_date              2025-03-06
_audit_creation_method            'MOFbuilder_1.0'
_symmetry_space_group_name_H-M    'P1'
_symmetry_Int_Tables_number       1
_symmetry_cell_setting            triclinic
loop_
_symmetry_equiv_pos_as_xyz
  x,y,z
_cell_length_a                    20.1513
_cell_length_b                    20.1513
_cell_length_c                    54.2756
_cell_angle_alpha                 90.0
_cell_angle_beta                  90.0
_cell_angle_gamma                 90.0
loop_
_atom_site_label
_atom_site_type_symbol
_atom_site_fract_x
_atom_site_fract_y
_atom_site_fract_z
V1    V   0.09820  0.22786  0.30213
V2    V   0.09820  0.27214  0.94787
V3    V   0.22786  0.59820  0.55213
V4    V   0.22786  0.90180  0.69787
V5    V   0.27214  0.59820  0.19787
V6    V   0.27214  0.90180  0.05213
V7    V   0.40180  0.22786  0.44787
V8    V   0.40180  0.27214  0.80213
V9    V   0.59820  0.72786  0.80213
V10   V   0.59820  0.77214  0.44787
V11   V   0.72786  0.09820  0.05213
V12   V   0.72786  0.40180  0.19787
V13   V   0.77214  0.09820  0.69787
V14   V   0.77214  0.40180  0.55213
V15   V   0.90180  0.72786  0.94787
V16   V   0.90180  0.77214  0.30213
E1    E   0.00000  0.00000  0.30213
E2    E   0.00000  0.00000  0.69787
E3    E   0.00000  0.50000  0.55213
E4    E   0.00000  0.50000  0.94787
E5    E   0.08697  0.68517  0.25000
E6    E   0.08697  0.81483  0.00000
E7    E   0.18517  0.08697  0.00000
E8    E   0.18517  0.41303  0.25000
E9    E   0.22786  0.75000  0.62500
E10   E   0.25000  0.22786  0.37500
E11   E   0.25000  0.27214  0.87500
E12   E   0.27214  0.75000  0.12500
E13   E   0.31483  0.08697  0.75000
E14   E   0.31483  0.41303  0.50000
E15   E   0.41303  0.68517  0.50000
E16   E   0.41303  0.81483  0.75000
E17   E   0.50000  0.00000  0.05213
E18   E   0.50000  0.00000  0.44787
E19   E   0.50000  0.50000  0.19787
E20   E   0.50000  0.50000  0.80213
E21   E   0.58697  0.18517  0.75000
E22   E   0.58697  0.31483  0.50000
E23   E   0.68517  0.58697  0.50000
E24   E   0.68517  0.91303  0.75000
E25   E   0.72786  0.25000  0.12500
E26   E   0.75000  0.72786  0.87500
E27   E   0.75000  0.77214  0.37500
E28   E   0.77214  0.25000  0.62500
E29   E   0.81483  0.58697  0.25000
E30   E   0.81483  0.91303  0.00000
E31   E   0.91303  0.18517  0.00000
E32   E   0.91303  0.31483  0.25000
loop_
