data_uks_Pn-3m:2  hall_number: 522, V_con: 4
_audit_creation_date              2025-03-06
_audit_creation_method            'MOFbuilder_1.0'
_symmetry_space_group_name_H-M    'P1'
_symmetry_Int_Tables_number       1
_symmetry_cell_setting            triclinic
loop_
_symmetry_equiv_pos_as_xyz
  x,y,z
_cell_length_a                    36.9551
_cell_length_b                    36.9551
_cell_length_c                    36.9551
_cell_angle_alpha                 90.0
_cell_angle_beta                  90.0
_cell_angle_gamma                 90.0
loop_
_atom_site_label
_atom_site_type_symbol
_atom_site_fract_x
_atom_site_fract_y
_atom_site_fract_z
V1    V   0.12510  0.12510  0.80202
V2    V   0.12510  0.37490  0.69798
V3    V   0.12510  0.69798  0.37490
V4    V   0.12510  0.80202  0.12510
V5    V   0.19798  0.62510  0.62510
V6    V   0.19798  0.87490  0.87490
V7    V   0.30202  0.62510  0.87490
V8    V   0.30202  0.87490  0.62510
V9    V   0.37490  0.12510  0.69798
V10   V   0.37490  0.37490  0.80202
V11   V   0.37490  0.69798  0.12510
V12   V   0.37490  0.80202  0.37490
V13   V   0.62510  0.19798  0.62510
V14   V   0.62510  0.30202  0.87490
V15   V   0.62510  0.62510  0.19798
V16   V   0.62510  0.87490  0.30202
V17   V   0.69798  0.12510  0.37490
V18   V   0.69798  0.37490  0.12510
V19   V   0.80202  0.12510  0.12510
V20   V   0.80202  0.37490  0.37490
V21   V   0.87490  0.19798  0.87490
V22   V   0.87490  0.30202  0.62510
V23   V   0.87490  0.62510  0.30202
V24   V   0.87490  0.87490  0.19798
E1    E   0.00000  0.16154  0.83846
E2    E   0.00000  0.16154  0.83846
E3    E   0.00000  0.33846  0.66154
E4    E   0.00000  0.66154  0.33846
E5    E   0.00000  0.83846  0.16154
E6    E   0.00000  0.83846  0.16154
E7    E   0.12510  0.25000  0.75000
E8    E   0.12510  0.75000  0.25000
E9    E   0.16154  0.00000  0.83846
E10   E   0.16154  0.50000  0.66154
E11   E   0.16154  0.66154  0.50000
E12   E   0.16154  0.83846  0.00000
E13   E   0.16154  0.00000  0.83846
E14   E   0.16154  0.50000  0.66154
E15   E   0.16154  0.66154  0.50000
E16   E   0.16154  0.83846  0.00000
E17   E   0.25000  0.12510  0.75000
E18   E   0.25000  0.37490  0.75000
E19   E   0.25000  0.62510  0.75000
E20   E   0.25000  0.75000  0.12510
E21   E   0.25000  0.75000  0.37490
E22   E   0.25000  0.75000  0.62510
E23   E   0.25000  0.75000  0.87490
E24   E   0.25000  0.87490  0.75000
E25   E   0.33846  0.00000  0.66154
E26   E   0.33846  0.50000  0.83846
E27   E   0.33846  0.66154  0.00000
E28   E   0.33846  0.83846  0.50000
E29   E   0.37490  0.25000  0.75000
E30   E   0.37490  0.75000  0.25000
E31   E   0.50000  0.16154  0.66154
E32   E   0.50000  0.16154  0.66154
E33   E   0.50000  0.33846  0.83846
E34   E   0.50000  0.66154  0.16154
E35   E   0.50000  0.66154  0.16154
E36   E   0.50000  0.83846  0.33846
E37   E   0.62510  0.25000  0.75000
E38   E   0.62510  0.75000  0.25000
E39   E   0.66154  0.00000  0.33846
E40   E   0.66154  0.16154  0.50000
E41   E   0.66154  0.16154  0.50000
E42   E   0.66154  0.33846  0.00000
E43   E   0.66154  0.50000  0.16154
E44   E   0.66154  0.50000  0.16154
E45   E   0.75000  0.12510  0.25000
E46   E   0.75000  0.25000  0.12510
E47   E   0.75000  0.25000  0.37490
E48   E   0.75000  0.25000  0.62510
E49   E   0.75000  0.25000  0.87490
E50   E   0.75000  0.37490  0.25000
E51   E   0.75000  0.62510  0.25000
E52   E   0.75000  0.87490  0.25000
E53   E   0.83846  0.00000  0.16154
E54   E   0.83846  0.00000  0.16154
E55   E   0.83846  0.16154  0.00000
E56   E   0.83846  0.16154  0.00000
E57   E   0.83846  0.33846  0.50000
E58   E   0.83846  0.50000  0.33846
E59   E   0.87490  0.25000  0.75000
E60   E   0.87490  0.75000  0.25000
loop_
