data_uku_P23  hall_number: 489, V_con: 4
_audit_creation_date              2025-03-06
_audit_creation_method            'MOFbuilder_1.0'
_symmetry_space_group_name_H-M    'P1'
_symmetry_Int_Tables_number       1
_symmetry_cell_setting            triclinic
loop_
_symmetry_equiv_pos_as_xyz
  x,y,z
_cell_length_a                    29.2765
_cell_length_b                    29.2765
_cell_length_c                    29.2765
_cell_angle_alpha                 90.0
_cell_angle_beta                  90.0
_cell_angle_gamma                 90.0
loop_
_atom_site_label
_atom_site_type_symbol
_atom_site_fract_x
_atom_site_fract_y
_atom_site_fract_z
V1    V   0.08218  0.14971  0.64971
V2    V   0.08218  0.85029  0.35029
V3    V   0.14971  0.35029  0.91782
V4    V   0.14971  0.64971  0.08218
V5    V   0.35029  0.08218  0.85029
V6    V   0.35029  0.91782  0.14971
V7    V   0.64971  0.08218  0.14971
V8    V   0.64971  0.91782  0.85029
V9    V   0.85029  0.35029  0.08218
V10   V   0.85029  0.64971  0.91782
V11   V   0.91782  0.14971  0.35029
V12   V   0.91782  0.85029  0.64971
E1    E   0.00000  0.00000  0.35029
E2    E   0.00000  0.00000  0.64971
E3    E   0.00000  0.14971  0.50000
E4    E   0.00000  0.35029  0.00000
E5    E   0.00000  0.64971  0.00000
E6    E   0.00000  0.85029  0.50000
E7    E   0.11595  0.25000  0.78376
E8    E   0.11595  0.75000  0.21624
E9    E   0.14971  0.50000  0.00000
E10   E   0.21624  0.11595  0.75000
E11   E   0.21624  0.88405  0.25000
E12   E   0.25000  0.21624  0.88405
E13   E   0.25000  0.78376  0.11595
E14   E   0.35029  0.00000  0.00000
E15   E   0.50000  0.00000  0.14971
E16   E   0.50000  0.00000  0.85029
E17   E   0.64971  0.00000  0.00000
E18   E   0.75000  0.21624  0.11595
E19   E   0.75000  0.78376  0.88405
E20   E   0.78376  0.11595  0.25000
E21   E   0.78376  0.88405  0.75000
E22   E   0.85029  0.50000  0.00000
E23   E   0.88405  0.25000  0.21624
E24   E   0.88405  0.75000  0.78376
loop_
