data_ukw_Ia-3d  hall_number: 530, V_con: 4
_audit_creation_date              2025-03-06
_audit_creation_method            'MOFbuilder_1.0'
_symmetry_space_group_name_H-M    'P1'
_symmetry_Int_Tables_number       1
_symmetry_cell_setting            triclinic
loop_
_symmetry_equiv_pos_as_xyz
  x,y,z
_cell_length_a                    51.7617
_cell_length_b                    51.7617
_cell_length_c                    51.7617
_cell_angle_alpha                 90.0
_cell_angle_beta                  90.0
_cell_angle_gamma                 90.0
loop_
_atom_site_label
_atom_site_type_symbol
_atom_site_fract_x
_atom_site_fract_y
_atom_site_fract_z
V1    V   0.02842  0.10898  0.35629
V2    V   0.02842  0.39102  0.85629
V3    V   0.02842  0.60898  0.64371
V4    V   0.02842  0.89102  0.14371
V5    V   0.10629  0.14102  0.72158
V6    V   0.10629  0.35898  0.22158
V7    V   0.10629  0.64102  0.27842
V8    V   0.10629  0.85898  0.77842
V9    V   0.10898  0.14371  0.52842
V10   V   0.10898  0.35629  0.02842
V11   V   0.10898  0.64371  0.47158
V12   V   0.10898  0.85629  0.97158
V13   V   0.14102  0.22158  0.89371
V14   V   0.14102  0.27842  0.39371
V15   V   0.14102  0.72158  0.10629
V16   V   0.14102  0.77842  0.60629
V17   V   0.14371  0.02842  0.89102
V18   V   0.14371  0.47158  0.39102
V19   V   0.14371  0.52842  0.10898
V20   V   0.14371  0.97158  0.60898
V21   V   0.22158  0.10629  0.35898
V22   V   0.22158  0.39371  0.85898
V23   V   0.22158  0.60629  0.64102
V24   V   0.22158  0.89371  0.14102
V25   V   0.27842  0.10629  0.64102
V26   V   0.27842  0.39371  0.14102
V27   V   0.27842  0.60629  0.35898
V28   V   0.27842  0.89371  0.85898
V29   V   0.35629  0.02842  0.10898
V30   V   0.35629  0.47158  0.60898
V31   V   0.35629  0.52842  0.89102
V32   V   0.35629  0.97158  0.39102
V33   V   0.35898  0.22158  0.10629
V34   V   0.35898  0.27842  0.60629
V35   V   0.35898  0.72158  0.89371
V36   V   0.35898  0.77842  0.39371
V37   V   0.39102  0.14371  0.47158
V38   V   0.39102  0.35629  0.97158
V39   V   0.39102  0.64371  0.52842
V40   V   0.39102  0.85629  0.02842
V41   V   0.39371  0.14102  0.27842
V42   V   0.39371  0.35898  0.77842
V43   V   0.39371  0.64102  0.72158
V44   V   0.39371  0.85898  0.22158
V45   V   0.47158  0.10898  0.64371
V46   V   0.47158  0.39102  0.14371
V47   V   0.47158  0.60898  0.35629
V48   V   0.47158  0.89102  0.85629
V49   V   0.52842  0.10898  0.14371
V50   V   0.52842  0.39102  0.64371
V51   V   0.52842  0.60898  0.85629
V52   V   0.52842  0.89102  0.35629
V53   V   0.60629  0.14102  0.77842
V54   V   0.60629  0.35898  0.27842
V55   V   0.60629  0.64102  0.22158
V56   V   0.60629  0.85898  0.72158
V57   V   0.60898  0.14371  0.97158
V58   V   0.60898  0.35629  0.47158
V59   V   0.60898  0.64371  0.02842
V60   V   0.60898  0.85629  0.52842
V61   V   0.64102  0.22158  0.60629
V62   V   0.64102  0.27842  0.10629
V63   V   0.64102  0.72158  0.39371
V64   V   0.64102  0.77842  0.89371
V65   V   0.64371  0.02842  0.60898
V66   V   0.64371  0.47158  0.10898
V67   V   0.64371  0.52842  0.39102
V68   V   0.64371  0.97158  0.89102
V69   V   0.72158  0.10629  0.14102
V70   V   0.72158  0.39371  0.64102
V71   V   0.72158  0.60629  0.85898
V72   V   0.72158  0.89371  0.35898
V73   V   0.77842  0.10629  0.85898
V74   V   0.77842  0.39371  0.35898
V75   V   0.77842  0.60629  0.14102
V76   V   0.77842  0.89371  0.64102
V77   V   0.85629  0.02842  0.39102
V78   V   0.85629  0.47158  0.89102
V79   V   0.85629  0.52842  0.60898
V80   V   0.85629  0.97158  0.10898
V81   V   0.85898  0.22158  0.39371
V82   V   0.85898  0.27842  0.89371
V83   V   0.85898  0.72158  0.60629
V84   V   0.85898  0.77842  0.10629
V85   V   0.89102  0.14371  0.02842
V86   V   0.89102  0.35629  0.52842
V87   V   0.89102  0.64371  0.97158
V88   V   0.89102  0.85629  0.47158
V89   V   0.89371  0.14102  0.22158
V90   V   0.89371  0.35898  0.72158
V91   V   0.89371  0.64102  0.77842
V92   V   0.89371  0.85898  0.27842
V93   V   0.97158  0.10898  0.85629
V94   V   0.97158  0.39102  0.35629
V95   V   0.97158  0.60898  0.14371
V96   V   0.97158  0.89102  0.64371
E1    E   0.03894  0.12500  0.78894
E2    E   0.03894  0.37500  0.28894
E3    E   0.03894  0.62500  0.21106
E4    E   0.03894  0.87500  0.71106
E5    E   0.03894  0.12500  0.78894
E6    E   0.03894  0.37500  0.28894
E7    E   0.03894  0.62500  0.21106
E8    E   0.03894  0.87500  0.71106
E9    E   0.05764  0.06870  0.87366
E10   E   0.05764  0.43130  0.37366
E11   E   0.05764  0.56870  0.12634
E12   E   0.05764  0.93130  0.62634
E13   E   0.06870  0.12634  0.44236
E14   E   0.06870  0.37366  0.94236
E15   E   0.06870  0.62634  0.55764
E16   E   0.06870  0.87366  0.05764
E17   E   0.10764  0.14236  0.62500
E18   E   0.10764  0.35764  0.12500
E19   E   0.10764  0.64236  0.37500
E20   E   0.10764  0.85764  0.87500
E21   E   0.10764  0.14236  0.62500
E22   E   0.10764  0.35764  0.12500
E23   E   0.10764  0.64236  0.37500
E24   E   0.10764  0.85764  0.87500
E25   E   0.12366  0.18130  0.80764
E26   E   0.12366  0.31870  0.30764
E27   E   0.12366  0.68130  0.19236
E28   E   0.12366  0.81870  0.69236
E29   E   0.12500  0.10764  0.35764
E30   E   0.12500  0.10764  0.35764
E31   E   0.12500  0.21106  0.46106
E32   E   0.12500  0.21106  0.46106
E33   E   0.12500  0.28894  0.96106
E34   E   0.12500  0.39236  0.85764
E35   E   0.12500  0.60764  0.64236
E36   E   0.12500  0.71106  0.53894
E37   E   0.12500  0.78894  0.03894
E38   E   0.12500  0.78894  0.03894
E39   E   0.12500  0.89236  0.14236
E40   E   0.12634  0.05764  0.56870
E41   E   0.12634  0.44236  0.06870
E42   E   0.12634  0.55764  0.43130
E43   E   0.12634  0.94236  0.93130
E44   E   0.14236  0.12500  0.89236
E45   E   0.14236  0.37500  0.39236
E46   E   0.14236  0.62500  0.10764
E47   E   0.14236  0.62500  0.10764
E48   E   0.14236  0.87500  0.60764
E49   E   0.18130  0.19236  0.37634
E50   E   0.18130  0.30764  0.87634
E51   E   0.18130  0.69236  0.62366
E52   E   0.18130  0.80764  0.12366
E53   E   0.19236  0.12366  0.68130
E54   E   0.19236  0.37634  0.18130
E55   E   0.19236  0.62366  0.31870
E56   E   0.19236  0.87634  0.81870
E57   E   0.21106  0.03894  0.62500
E58   E   0.21106  0.46106  0.12500
E59   E   0.21106  0.53894  0.37500
E60   E   0.21106  0.96106  0.87500
E61   E   0.21106  0.03894  0.62500
E62   E   0.21106  0.46106  0.12500
E63   E   0.21106  0.53894  0.37500
E64   E   0.21106  0.96106  0.87500
E65   E   0.28894  0.03894  0.37500
E66   E   0.28894  0.03894  0.37500
E67   E   0.28894  0.46106  0.87500
E68   E   0.28894  0.53894  0.62500
E69   E   0.28894  0.96106  0.12500
E70   E   0.30764  0.12366  0.31870
E71   E   0.30764  0.37634  0.81870
E72   E   0.30764  0.62366  0.68130
E73   E   0.30764  0.87634  0.18130
E74   E   0.31870  0.19236  0.62366
E75   E   0.31870  0.30764  0.12366
E76   E   0.31870  0.69236  0.37634
E77   E   0.31870  0.80764  0.87634
E78   E   0.35764  0.12500  0.10764
E79   E   0.35764  0.12500  0.10764
E80   E   0.35764  0.37500  0.60764
E81   E   0.35764  0.62500  0.89236
E82   E   0.35764  0.87500  0.39236
E83   E   0.37366  0.05764  0.43130
E84   E   0.37366  0.44236  0.93130
E85   E   0.37366  0.55764  0.56870
E86   E   0.37366  0.94236  0.06870
E87   E   0.37500  0.10764  0.64236
E88   E   0.37500  0.10764  0.64236
E89   E   0.37500  0.21106  0.53894
E90   E   0.37500  0.21106  0.53894
E91   E   0.37500  0.28894  0.03894
E92   E   0.37500  0.28894  0.03894
E93   E   0.37500  0.39236  0.14236
E94   E   0.37500  0.60764  0.35764
E95   E   0.37500  0.71106  0.46106
E96   E   0.37500  0.78894  0.96106
E97   E   0.37500  0.89236  0.85764
E98   E   0.37634  0.18130  0.19236
E99   E   0.37634  0.31870  0.69236
E100  E   0.37634  0.68130  0.80764
E101  E   0.37634  0.81870  0.30764
E102  E   0.39236  0.14236  0.37500
E103  E   0.39236  0.35764  0.87500
E104  E   0.39236  0.64236  0.62500
E105  E   0.39236  0.85764  0.12500
E106  E   0.43130  0.12634  0.55764
E107  E   0.43130  0.37366  0.05764
E108  E   0.43130  0.62634  0.44236
E109  E   0.43130  0.87366  0.94236
E110  E   0.44236  0.06870  0.12634
E111  E   0.44236  0.43130  0.62634
E112  E   0.44236  0.56870  0.87366
E113  E   0.44236  0.93130  0.37366
E114  E   0.46106  0.12500  0.21106
E115  E   0.46106  0.12500  0.21106
E116  E   0.46106  0.37500  0.71106
E117  E   0.46106  0.62500  0.78894
E118  E   0.46106  0.87500  0.28894
E119  E   0.53894  0.12500  0.71106
E120  E   0.53894  0.37500  0.21106
E121  E   0.53894  0.37500  0.21106
E122  E   0.53894  0.62500  0.28894
E123  E   0.53894  0.87500  0.78894
E124  E   0.55764  0.06870  0.62634
E125  E   0.55764  0.43130  0.12634
E126  E   0.55764  0.56870  0.37366
E127  E   0.55764  0.93130  0.87366
E128  E   0.56870  0.12634  0.05764
E129  E   0.56870  0.37366  0.55764
E130  E   0.56870  0.62634  0.94236
E131  E   0.56870  0.87366  0.44236
E132  E   0.60764  0.14236  0.87500
E133  E   0.60764  0.35764  0.37500
E134  E   0.60764  0.64236  0.12500
E135  E   0.60764  0.85764  0.62500
E136  E   0.62366  0.18130  0.69236
E137  E   0.62366  0.31870  0.19236
E138  E   0.62366  0.68130  0.30764
E139  E   0.62366  0.81870  0.80764
E140  E   0.62500  0.10764  0.14236
E141  E   0.62500  0.10764  0.14236
E142  E   0.62500  0.21106  0.03894
E143  E   0.62500  0.21106  0.03894
E144  E   0.62500  0.28894  0.53894
E145  E   0.62500  0.39236  0.64236
E146  E   0.62500  0.60764  0.85764
E147  E   0.62500  0.71106  0.96106
E148  E   0.62500  0.78894  0.46106
E149  E   0.62500  0.89236  0.35764
E150  E   0.62634  0.05764  0.93130
E151  E   0.62634  0.44236  0.43130
E152  E   0.62634  0.55764  0.06870
E153  E   0.62634  0.94236  0.56870
E154  E   0.64236  0.12500  0.60764
E155  E   0.64236  0.37500  0.10764
E156  E   0.64236  0.37500  0.10764
E157  E   0.64236  0.62500  0.39236
E158  E   0.64236  0.87500  0.89236
E159  E   0.68130  0.19236  0.12366
E160  E   0.68130  0.30764  0.62366
E161  E   0.68130  0.69236  0.87634
E162  E   0.68130  0.80764  0.37634
E163  E   0.69236  0.12366  0.81870
E164  E   0.69236  0.37634  0.31870
E165  E   0.69236  0.62366  0.18130
E166  E   0.69236  0.87634  0.68130
E167  E   0.71106  0.03894  0.87500
E168  E   0.71106  0.03894  0.87500
E169  E   0.71106  0.46106  0.37500
E170  E   0.71106  0.53894  0.12500
E171  E   0.71106  0.96106  0.62500
E172  E   0.78894  0.03894  0.12500
E173  E   0.78894  0.03894  0.12500
E174  E   0.78894  0.46106  0.62500
E175  E   0.78894  0.53894  0.87500
E176  E   0.78894  0.96106  0.37500
E177  E   0.80764  0.12366  0.18130
E178  E   0.80764  0.37634  0.68130
E179  E   0.80764  0.62366  0.81870
E180  E   0.80764  0.87634  0.31870
E181  E   0.81870  0.19236  0.87634
E182  E   0.81870  0.30764  0.37634
E183  E   0.81870  0.69236  0.12366
E184  E   0.81870  0.80764  0.62366
E185  E   0.85764  0.12500  0.39236
E186  E   0.85764  0.37500  0.89236
E187  E   0.85764  0.62500  0.60764
E188  E   0.85764  0.87500  0.10764
E189  E   0.85764  0.87500  0.10764
E190  E   0.87366  0.05764  0.06870
E191  E   0.87366  0.44236  0.56870
E192  E   0.87366  0.55764  0.93130
E193  E   0.87366  0.94236  0.43130
E194  E   0.87500  0.10764  0.85764
E195  E   0.87500  0.10764  0.85764
E196  E   0.87500  0.21106  0.96106
E197  E   0.87500  0.21106  0.96106
E198  E   0.87500  0.28894  0.46106
E199  E   0.87500  0.39236  0.35764
E200  E   0.87500  0.60764  0.14236
E201  E   0.87500  0.71106  0.03894
E202  E   0.87500  0.71106  0.03894
E203  E   0.87500  0.78894  0.53894
E204  E   0.87500  0.89236  0.64236
E205  E   0.87634  0.18130  0.30764
E206  E   0.87634  0.31870  0.80764
E207  E   0.87634  0.68130  0.69236
E208  E   0.87634  0.81870  0.19236
E209  E   0.89236  0.14236  0.12500
E210  E   0.89236  0.35764  0.62500
E211  E   0.89236  0.64236  0.87500
E212  E   0.89236  0.85764  0.37500
E213  E   0.93130  0.12634  0.94236
E214  E   0.93130  0.37366  0.44236
E215  E   0.93130  0.62634  0.05764
E216  E   0.93130  0.87366  0.55764
E217  E   0.94236  0.06870  0.37366
E218  E   0.94236  0.43130  0.87366
E219  E   0.94236  0.56870  0.62634
E220  E   0.94236  0.93130  0.12634
E221  E   0.96106  0.12500  0.28894
E222  E   0.96106  0.37500  0.78894
E223  E   0.96106  0.62500  0.71106
E224  E   0.96106  0.87500  0.21106
E225  E   0.96106  0.87500  0.21106
loop_
