data_ukx_Ia-3d  hall_number: 530, V_con: 4
_audit_creation_date              2025-03-06
_audit_creation_method            'MOFbuilder_1.0'
_symmetry_space_group_name_H-M    'P1'
_symmetry_Int_Tables_number       1
_symmetry_cell_setting            triclinic
loop_
_symmetry_equiv_pos_as_xyz
  x,y,z
_cell_length_a                    54.5643
_cell_length_b                    54.5643
_cell_length_c                    54.5643
_cell_angle_alpha                 90.0
_cell_angle_beta                  90.0
_cell_angle_gamma                 90.0
loop_
_atom_site_label
_atom_site_type_symbol
_atom_site_fract_x
_atom_site_fract_y
_atom_site_fract_z
V1    V   0.04302  0.14217  0.33428
V2    V   0.04302  0.35783  0.83428
V3    V   0.04302  0.64217  0.66572
V4    V   0.04302  0.85783  0.16572
V5    V   0.08428  0.10783  0.70698
V6    V   0.08428  0.39217  0.20698
V7    V   0.08428  0.60783  0.29302
V8    V   0.08428  0.89217  0.79302
V9    V   0.10783  0.20698  0.91572
V10   V   0.10783  0.29302  0.41572
V11   V   0.10783  0.70698  0.08428
V12   V   0.10783  0.79302  0.58428
V13   V   0.14217  0.16572  0.54302
V14   V   0.14217  0.33428  0.04302
V15   V   0.14217  0.66572  0.45698
V16   V   0.14217  0.83428  0.95698
V17   V   0.16572  0.04302  0.85783
V18   V   0.16572  0.45698  0.35783
V19   V   0.16572  0.54302  0.14217
V20   V   0.16572  0.95698  0.64217
V21   V   0.20698  0.08428  0.39217
V22   V   0.20698  0.41572  0.89217
V23   V   0.20698  0.58428  0.60783
V24   V   0.20698  0.91572  0.10783
V25   V   0.29302  0.08428  0.60783
V26   V   0.29302  0.41572  0.10783
V27   V   0.29302  0.58428  0.39217
V28   V   0.29302  0.91572  0.89217
V29   V   0.33428  0.04302  0.14217
V30   V   0.33428  0.45698  0.64217
V31   V   0.33428  0.54302  0.85783
V32   V   0.33428  0.95698  0.35783
V33   V   0.35783  0.16572  0.45698
V34   V   0.35783  0.33428  0.95698
V35   V   0.35783  0.66572  0.54302
V36   V   0.35783  0.83428  0.04302
V37   V   0.39217  0.20698  0.08428
V38   V   0.39217  0.29302  0.58428
V39   V   0.39217  0.70698  0.91572
V40   V   0.39217  0.79302  0.41572
V41   V   0.41572  0.10783  0.29302
V42   V   0.41572  0.39217  0.79302
V43   V   0.41572  0.60783  0.70698
V44   V   0.41572  0.89217  0.20698
V45   V   0.45698  0.14217  0.66572
V46   V   0.45698  0.35783  0.16572
V47   V   0.45698  0.64217  0.33428
V48   V   0.45698  0.85783  0.83428
V49   V   0.54302  0.14217  0.16572
V50   V   0.54302  0.35783  0.66572
V51   V   0.54302  0.64217  0.83428
V52   V   0.54302  0.85783  0.33428
V53   V   0.58428  0.10783  0.79302
V54   V   0.58428  0.39217  0.29302
V55   V   0.58428  0.60783  0.20698
V56   V   0.58428  0.89217  0.70698
V57   V   0.60783  0.20698  0.58428
V58   V   0.60783  0.29302  0.08428
V59   V   0.60783  0.70698  0.41572
V60   V   0.60783  0.79302  0.91572
V61   V   0.64217  0.16572  0.95698
V62   V   0.64217  0.33428  0.45698
V63   V   0.64217  0.66572  0.04302
V64   V   0.64217  0.83428  0.54302
V65   V   0.66572  0.04302  0.64217
V66   V   0.66572  0.45698  0.14217
V67   V   0.66572  0.54302  0.35783
V68   V   0.66572  0.95698  0.85783
V69   V   0.70698  0.08428  0.10783
V70   V   0.70698  0.41572  0.60783
V71   V   0.70698  0.58428  0.89217
V72   V   0.70698  0.91572  0.39217
V73   V   0.79302  0.08428  0.89217
V74   V   0.79302  0.41572  0.39217
V75   V   0.79302  0.58428  0.10783
V76   V   0.79302  0.91572  0.60783
V77   V   0.83428  0.04302  0.35783
V78   V   0.83428  0.45698  0.85783
V79   V   0.83428  0.54302  0.64217
V80   V   0.83428  0.95698  0.14217
V81   V   0.85783  0.16572  0.04302
V82   V   0.85783  0.33428  0.54302
V83   V   0.85783  0.66572  0.95698
V84   V   0.85783  0.83428  0.45698
V85   V   0.89217  0.20698  0.41572
V86   V   0.89217  0.29302  0.91572
V87   V   0.89217  0.70698  0.58428
V88   V   0.89217  0.79302  0.08428
V89   V   0.91572  0.10783  0.20698
V90   V   0.91572  0.39217  0.70698
V91   V   0.91572  0.60783  0.79302
V92   V   0.91572  0.89217  0.29302
V93   V   0.95698  0.14217  0.83428
V94   V   0.95698  0.35783  0.33428
V95   V   0.95698  0.64217  0.16572
V96   V   0.95698  0.85783  0.66572
E1    E   0.02063  0.12500  0.77063
E2    E   0.02063  0.37500  0.27063
E3    E   0.02063  0.62500  0.22937
E4    E   0.02063  0.87500  0.72937
E5    E   0.02063  0.12500  0.77063
E6    E   0.02063  0.37500  0.27063
E7    E   0.02063  0.62500  0.22937
E8    E   0.02063  0.87500  0.72937
E9    E   0.03241  0.17458  0.87500
E10   E   0.03241  0.32542  0.37500
E11   E   0.03241  0.67458  0.12500
E12   E   0.03241  0.82542  0.62500
E13   E   0.07542  0.21759  0.37500
E14   E   0.07542  0.28241  0.87500
E15   E   0.07542  0.71759  0.62500
E16   E   0.07542  0.78241  0.12500
E17   E   0.11322  0.13678  0.62500
E18   E   0.11322  0.36322  0.12500
E19   E   0.11322  0.63678  0.37500
E20   E   0.11322  0.86322  0.87500
E21   E   0.11322  0.13678  0.62500
E22   E   0.11322  0.36322  0.12500
E23   E   0.11322  0.63678  0.37500
E24   E   0.11322  0.86322  0.87500
E25   E   0.12500  0.03241  0.67458
E26   E   0.12500  0.07542  0.78241
E27   E   0.12500  0.11322  0.36322
E28   E   0.12500  0.11322  0.36322
E29   E   0.12500  0.22937  0.47937
E30   E   0.12500  0.22937  0.47937
E31   E   0.12500  0.27063  0.97937
E32   E   0.12500  0.27063  0.97937
E33   E   0.12500  0.38678  0.86322
E34   E   0.12500  0.42458  0.28241
E35   E   0.12500  0.46759  0.17458
E36   E   0.12500  0.53241  0.32542
E37   E   0.12500  0.57542  0.21759
E38   E   0.12500  0.61322  0.63678
E39   E   0.12500  0.72937  0.52063
E40   E   0.12500  0.72937  0.52063
E41   E   0.12500  0.77063  0.02063
E42   E   0.12500  0.77063  0.02063
E43   E   0.12500  0.88678  0.13678
E44   E   0.12500  0.92458  0.71759
E45   E   0.12500  0.96759  0.82542
E46   E   0.13678  0.12500  0.88678
E47   E   0.13678  0.37500  0.38678
E48   E   0.13678  0.62500  0.11322
E49   E   0.13678  0.62500  0.11322
E50   E   0.13678  0.87500  0.61322
E51   E   0.17458  0.12500  0.46759
E52   E   0.17458  0.37500  0.96759
E53   E   0.17458  0.62500  0.53241
E54   E   0.17458  0.87500  0.03241
E55   E   0.21759  0.12500  0.57542
E56   E   0.21759  0.37500  0.07542
E57   E   0.21759  0.62500  0.42458
E58   E   0.21759  0.87500  0.92458
E59   E   0.22937  0.02063  0.62500
E60   E   0.22937  0.47937  0.12500
E61   E   0.22937  0.52063  0.37500
E62   E   0.22937  0.97937  0.87500
E63   E   0.22937  0.02063  0.62500
E64   E   0.22937  0.47937  0.12500
E65   E   0.22937  0.52063  0.37500
E66   E   0.22937  0.97937  0.87500
E67   E   0.27063  0.02063  0.37500
E68   E   0.27063  0.02063  0.37500
E69   E   0.27063  0.47937  0.87500
E70   E   0.27063  0.52063  0.62500
E71   E   0.27063  0.52063  0.62500
E72   E   0.27063  0.97937  0.12500
E73   E   0.27063  0.97937  0.12500
E74   E   0.28241  0.12500  0.42458
E75   E   0.28241  0.37500  0.92458
E76   E   0.28241  0.62500  0.57542
E77   E   0.28241  0.87500  0.07542
E78   E   0.32542  0.12500  0.53241
E79   E   0.32542  0.37500  0.03241
E80   E   0.32542  0.62500  0.46759
E81   E   0.32542  0.87500  0.96759
E82   E   0.36322  0.12500  0.11322
E83   E   0.36322  0.12500  0.11322
E84   E   0.36322  0.37500  0.61322
E85   E   0.36322  0.62500  0.88678
E86   E   0.36322  0.87500  0.38678
E87   E   0.37500  0.03241  0.32542
E88   E   0.37500  0.07542  0.21759
E89   E   0.37500  0.11322  0.63678
E90   E   0.37500  0.11322  0.63678
E91   E   0.37500  0.22937  0.52063
E92   E   0.37500  0.22937  0.52063
E93   E   0.37500  0.27063  0.02063
E94   E   0.37500  0.27063  0.02063
E95   E   0.37500  0.38678  0.13678
E96   E   0.37500  0.42458  0.71759
E97   E   0.37500  0.46759  0.82542
E98   E   0.37500  0.53241  0.67458
E99   E   0.37500  0.57542  0.78241
E100  E   0.37500  0.61322  0.36322
E101  E   0.37500  0.72937  0.47937
E102  E   0.37500  0.72937  0.47937
E103  E   0.37500  0.77063  0.97937
E104  E   0.37500  0.77063  0.97937
E105  E   0.37500  0.88678  0.86322
E106  E   0.37500  0.92458  0.28241
E107  E   0.37500  0.96759  0.17458
E108  E   0.38678  0.13678  0.37500
E109  E   0.38678  0.36322  0.87500
E110  E   0.38678  0.63678  0.62500
E111  E   0.38678  0.86322  0.12500
E112  E   0.42458  0.21759  0.62500
E113  E   0.42458  0.28241  0.12500
E114  E   0.42458  0.71759  0.37500
E115  E   0.42458  0.78241  0.87500
E116  E   0.46759  0.17458  0.12500
E117  E   0.46759  0.32542  0.62500
E118  E   0.46759  0.67458  0.87500
E119  E   0.46759  0.82542  0.37500
E120  E   0.47937  0.12500  0.22937
E121  E   0.47937  0.12500  0.22937
E122  E   0.47937  0.37500  0.72937
E123  E   0.47937  0.37500  0.72937
E124  E   0.47937  0.62500  0.77063
E125  E   0.47937  0.62500  0.77063
E126  E   0.47937  0.87500  0.27063
E127  E   0.52063  0.12500  0.72937
E128  E   0.52063  0.37500  0.22937
E129  E   0.52063  0.62500  0.27063
E130  E   0.52063  0.87500  0.77063
E131  E   0.52063  0.12500  0.72937
E132  E   0.52063  0.37500  0.22937
E133  E   0.52063  0.62500  0.27063
E134  E   0.52063  0.87500  0.77063
E135  E   0.53241  0.17458  0.62500
E136  E   0.53241  0.32542  0.12500
E137  E   0.53241  0.67458  0.37500
E138  E   0.53241  0.82542  0.87500
E139  E   0.57542  0.21759  0.12500
E140  E   0.57542  0.28241  0.62500
E141  E   0.57542  0.71759  0.87500
E142  E   0.57542  0.78241  0.37500
E143  E   0.61322  0.13678  0.87500
E144  E   0.61322  0.36322  0.37500
E145  E   0.61322  0.63678  0.12500
E146  E   0.61322  0.86322  0.62500
E147  E   0.62500  0.03241  0.82542
E148  E   0.62500  0.07542  0.71759
E149  E   0.62500  0.11322  0.13678
E150  E   0.62500  0.11322  0.13678
E151  E   0.62500  0.22937  0.02063
E152  E   0.62500  0.22937  0.02063
E153  E   0.62500  0.27063  0.52063
E154  E   0.62500  0.27063  0.52063
E155  E   0.62500  0.38678  0.63678
E156  E   0.62500  0.42458  0.21759
E157  E   0.62500  0.46759  0.32542
E158  E   0.62500  0.53241  0.17458
E159  E   0.62500  0.57542  0.28241
E160  E   0.62500  0.61322  0.86322
E161  E   0.62500  0.72937  0.97937
E162  E   0.62500  0.72937  0.97937
E163  E   0.62500  0.77063  0.47937
E164  E   0.62500  0.77063  0.47937
E165  E   0.62500  0.88678  0.36322
E166  E   0.62500  0.92458  0.78241
E167  E   0.62500  0.96759  0.67458
E168  E   0.63678  0.12500  0.61322
E169  E   0.63678  0.37500  0.11322
E170  E   0.63678  0.37500  0.11322
E171  E   0.63678  0.62500  0.38678
E172  E   0.63678  0.87500  0.88678
E173  E   0.67458  0.12500  0.03241
E174  E   0.67458  0.37500  0.53241
E175  E   0.67458  0.62500  0.96759
E176  E   0.67458  0.87500  0.46759
E177  E   0.71759  0.12500  0.92458
E178  E   0.71759  0.37500  0.42458
E179  E   0.71759  0.62500  0.07542
E180  E   0.71759  0.87500  0.57542
E181  E   0.72937  0.02063  0.87500
E182  E   0.72937  0.47937  0.37500
E183  E   0.72937  0.52063  0.12500
E184  E   0.72937  0.97937  0.62500
E185  E   0.72937  0.02063  0.87500
E186  E   0.72937  0.47937  0.37500
E187  E   0.72937  0.52063  0.12500
E188  E   0.72937  0.97937  0.62500
E189  E   0.77063  0.02063  0.12500
E190  E   0.77063  0.47937  0.62500
E191  E   0.77063  0.52063  0.87500
E192  E   0.77063  0.97937  0.37500
E193  E   0.77063  0.02063  0.12500
E194  E   0.77063  0.47937  0.62500
E195  E   0.77063  0.52063  0.87500
E196  E   0.77063  0.97937  0.37500
E197  E   0.78241  0.12500  0.07542
E198  E   0.78241  0.37500  0.57542
E199  E   0.78241  0.62500  0.92458
E200  E   0.78241  0.87500  0.42458
E201  E   0.82542  0.12500  0.96759
E202  E   0.82542  0.37500  0.46759
E203  E   0.82542  0.62500  0.03241
E204  E   0.82542  0.87500  0.53241
E205  E   0.86322  0.12500  0.38678
E206  E   0.86322  0.37500  0.88678
E207  E   0.86322  0.62500  0.61322
E208  E   0.86322  0.87500  0.11322
E209  E   0.86322  0.87500  0.11322
E210  E   0.87500  0.03241  0.17458
E211  E   0.87500  0.07542  0.28241
E212  E   0.87500  0.11322  0.86322
E213  E   0.87500  0.11322  0.86322
E214  E   0.87500  0.22937  0.97937
E215  E   0.87500  0.22937  0.97937
E216  E   0.87500  0.27063  0.47937
E217  E   0.87500  0.38678  0.36322
E218  E   0.87500  0.42458  0.78241
E219  E   0.87500  0.46759  0.67458
E220  E   0.87500  0.53241  0.82542
E221  E   0.87500  0.57542  0.71759
E222  E   0.87500  0.61322  0.13678
E223  E   0.87500  0.72937  0.02063
E224  E   0.87500  0.72937  0.02063
E225  E   0.87500  0.77063  0.52063
E226  E   0.87500  0.77063  0.52063
E227  E   0.87500  0.88678  0.63678
E228  E   0.87500  0.92458  0.21759
E229  E   0.87500  0.96759  0.32542
E230  E   0.88678  0.13678  0.12500
E231  E   0.88678  0.36322  0.62500
E232  E   0.88678  0.63678  0.87500
E233  E   0.88678  0.86322  0.37500
E234  E   0.92458  0.21759  0.87500
E235  E   0.92458  0.28241  0.37500
E236  E   0.92458  0.71759  0.12500
E237  E   0.92458  0.78241  0.62500
E238  E   0.96759  0.17458  0.37500
E239  E   0.96759  0.32542  0.87500
E240  E   0.96759  0.67458  0.62500
E241  E   0.96759  0.82542  0.12500
E242  E   0.97937  0.12500  0.27063
E243  E   0.97937  0.37500  0.77063
E244  E   0.97937  0.62500  0.72937
E245  E   0.97937  0.87500  0.22937
E246  E   0.97937  0.12500  0.27063
E247  E   0.97937  0.37500  0.77063
E248  E   0.97937  0.62500  0.72937
E249  E   0.97937  0.87500  0.22937
loop_
