data_uli_I432  hall_number: 507, V_con: 4
_audit_creation_date              2025-03-06
_audit_creation_method            'MOFbuilder_1.0'
_symmetry_space_group_name_H-M    'P1'
_symmetry_Int_Tables_number       1
_symmetry_cell_setting            triclinic
loop_
_symmetry_equiv_pos_as_xyz
  x,y,z
_cell_length_a                    48.8248
_cell_length_b                    48.8248
_cell_length_c                    48.8248
_cell_angle_alpha                 90.0
_cell_angle_beta                  90.0
_cell_angle_gamma                 90.0
loop_
_atom_site_label
_atom_site_type_symbol
_atom_site_fract_x
_atom_site_fract_y
_atom_site_fract_z
V1    V   0.10125  0.23402  0.74431
V2    V   0.10125  0.25569  0.23402
V3    V   0.10125  0.74431  0.76598
V4    V   0.10125  0.76598  0.25569
V5    V   0.23402  0.10125  0.25569
V6    V   0.23402  0.25569  0.89875
V7    V   0.23402  0.74431  0.10125
V8    V   0.23402  0.89875  0.74431
V9    V   0.24431  0.26598  0.60125
V10   V   0.24431  0.39875  0.26598
V11   V   0.24431  0.60125  0.73402
V12   V   0.24431  0.73402  0.39875
V13   V   0.25569  0.10125  0.76598
V14   V   0.25569  0.23402  0.10125
V15   V   0.25569  0.76598  0.89875
V16   V   0.25569  0.89875  0.23402
V17   V   0.26598  0.24431  0.39875
V18   V   0.26598  0.39875  0.75569
V19   V   0.26598  0.60125  0.24431
V20   V   0.26598  0.75569  0.60125
V21   V   0.39875  0.24431  0.73402
V22   V   0.39875  0.26598  0.24431
V23   V   0.39875  0.73402  0.75569
V24   V   0.39875  0.75569  0.26598
V25   V   0.60125  0.24431  0.26598
V26   V   0.60125  0.26598  0.75569
V27   V   0.60125  0.73402  0.24431
V28   V   0.60125  0.75569  0.73402
V29   V   0.73402  0.24431  0.60125
V30   V   0.73402  0.39875  0.24431
V31   V   0.73402  0.60125  0.75569
V32   V   0.73402  0.75569  0.39875
V33   V   0.74431  0.10125  0.23402
V34   V   0.74431  0.23402  0.89875
V35   V   0.74431  0.76598  0.10125
V36   V   0.74431  0.89875  0.76598
V37   V   0.75569  0.26598  0.39875
V38   V   0.75569  0.39875  0.73402
V39   V   0.75569  0.60125  0.26598
V40   V   0.75569  0.73402  0.60125
V41   V   0.76598  0.10125  0.74431
V42   V   0.76598  0.25569  0.10125
V43   V   0.76598  0.74431  0.89875
V44   V   0.76598  0.89875  0.25569
V45   V   0.89875  0.23402  0.25569
V46   V   0.89875  0.25569  0.76598
V47   V   0.89875  0.74431  0.23402
V48   V   0.89875  0.76598  0.74431
E1    E   0.00000  0.24486  0.24486
E2    E   0.00000  0.24486  0.75514
E3    E   0.00000  0.75514  0.24486
E4    E   0.00000  0.75514  0.75514
E5    E   0.16764  0.17847  0.24486
E6    E   0.16764  0.24486  0.82153
E7    E   0.16764  0.75514  0.17847
E8    E   0.16764  0.82153  0.75514
E9    E   0.17278  0.25000  0.67278
E10   E   0.17278  0.32722  0.25000
E11   E   0.17278  0.67278  0.75000
E12   E   0.17278  0.75000  0.32722
E13   E   0.17847  0.16764  0.75514
E14   E   0.17847  0.24486  0.16764
E15   E   0.17847  0.75514  0.83236
E16   E   0.17847  0.83236  0.24486
E17   E   0.24486  0.00000  0.24486
E18   E   0.24486  0.00000  0.75514
E19   E   0.24486  0.16764  0.17847
E20   E   0.24486  0.17847  0.83236
E21   E   0.24486  0.24486  0.00000
E22   E   0.24486  0.75514  0.00000
E23   E   0.24486  0.82153  0.16764
E24   E   0.24486  0.83236  0.82153
E25   E   0.25000  0.17278  0.32722
E26   E   0.25000  0.32722  0.82722
E27   E   0.25000  0.67278  0.17278
E28   E   0.25000  0.82722  0.67278
E29   E   0.25514  0.25514  0.50000
E30   E   0.25514  0.32153  0.33236
E31   E   0.25514  0.33236  0.67847
E32   E   0.25514  0.50000  0.25514
E33   E   0.25514  0.50000  0.74486
E34   E   0.25514  0.66764  0.32153
E35   E   0.25514  0.67847  0.66764
E36   E   0.25514  0.74486  0.50000
E37   E   0.32153  0.25514  0.66764
E38   E   0.32153  0.33236  0.25514
E39   E   0.32153  0.66764  0.74486
E40   E   0.32153  0.74486  0.33236
E41   E   0.32722  0.17278  0.75000
E42   E   0.32722  0.25000  0.17278
E43   E   0.32722  0.75000  0.82722
E44   E   0.32722  0.82722  0.25000
E45   E   0.33236  0.25514  0.32153
E46   E   0.33236  0.32153  0.74486
E47   E   0.33236  0.67847  0.25514
E48   E   0.33236  0.74486  0.67847
E49   E   0.50000  0.25514  0.25514
E50   E   0.50000  0.25514  0.74486
E51   E   0.50000  0.74486  0.25514
E52   E   0.50000  0.74486  0.74486
E53   E   0.66764  0.25514  0.67847
E54   E   0.66764  0.32153  0.25514
E55   E   0.66764  0.67847  0.74486
E56   E   0.66764  0.74486  0.32153
E57   E   0.67278  0.17278  0.25000
E58   E   0.67278  0.25000  0.82722
E59   E   0.67278  0.75000  0.17278
E60   E   0.67278  0.82722  0.75000
E61   E   0.67847  0.25514  0.33236
E62   E   0.67847  0.33236  0.74486
E63   E   0.67847  0.66764  0.25514
E64   E   0.67847  0.74486  0.66764
E65   E   0.74486  0.25514  0.50000
E66   E   0.74486  0.32153  0.66764
E67   E   0.74486  0.33236  0.32153
E68   E   0.74486  0.50000  0.25514
E69   E   0.74486  0.50000  0.74486
E70   E   0.74486  0.66764  0.67847
E71   E   0.74486  0.67847  0.33236
E72   E   0.74486  0.74486  0.50000
E73   E   0.75000  0.17278  0.67278
E74   E   0.75000  0.32722  0.17278
E75   E   0.75000  0.67278  0.82722
E76   E   0.75000  0.82722  0.32722
E77   E   0.75514  0.00000  0.24486
E78   E   0.75514  0.00000  0.75514
E79   E   0.75514  0.16764  0.82153
E80   E   0.75514  0.17847  0.16764
E81   E   0.75514  0.24486  0.00000
E82   E   0.75514  0.75514  0.00000
E83   E   0.75514  0.82153  0.83236
E84   E   0.75514  0.83236  0.17847
E85   E   0.82153  0.16764  0.24486
E86   E   0.82153  0.24486  0.83236
E87   E   0.82153  0.75514  0.16764
E88   E   0.82153  0.83236  0.75514
E89   E   0.82722  0.25000  0.32722
E90   E   0.82722  0.32722  0.75000
E91   E   0.82722  0.67278  0.25000
E92   E   0.82722  0.75000  0.67278
E93   E   0.83236  0.17847  0.75514
E94   E   0.83236  0.24486  0.17847
E95   E   0.83236  0.75514  0.82153
E96   E   0.83236  0.82153  0.24486
loop_
