data_ulj_I-43d  hall_number: 516, V_con: 4
_audit_creation_date              2025-03-06
_audit_creation_method            'MOFbuilder_1.0'
_symmetry_space_group_name_H-M    'P1'
_symmetry_Int_Tables_number       1
_symmetry_cell_setting            triclinic
loop_
_symmetry_equiv_pos_as_xyz
  x,y,z
_cell_length_a                    44.6895
_cell_length_b                    44.6895
_cell_length_c                    44.6895
_cell_angle_alpha                 90.0
_cell_angle_beta                  90.0
_cell_angle_gamma                 90.0
loop_
_atom_site_label
_atom_site_type_symbol
_atom_site_fract_x
_atom_site_fract_y
_atom_site_fract_z
V1    V   0.01232  0.38288  0.43511
V2    V   0.01232  0.61712  0.06489
V3    V   0.06489  0.01232  0.61712
V4    V   0.06489  0.98768  0.88288
V5    V   0.11712  0.43511  0.98768
V6    V   0.11712  0.56489  0.51232
V7    V   0.13288  0.23768  0.31489
V8    V   0.13288  0.76232  0.18511
V9    V   0.18511  0.13288  0.76232
V10   V   0.18511  0.86712  0.73768
V11   V   0.23768  0.31489  0.13288
V12   V   0.23768  0.68511  0.36712
V13   V   0.26232  0.31489  0.86712
V14   V   0.26232  0.68511  0.63288
V15   V   0.31489  0.13288  0.23768
V16   V   0.31489  0.86712  0.26232
V17   V   0.36712  0.23768  0.68511
V18   V   0.36712  0.76232  0.81489
V19   V   0.38288  0.43511  0.01232
V20   V   0.38288  0.56489  0.48768
V21   V   0.43511  0.01232  0.38288
V22   V   0.43511  0.98768  0.11712
V23   V   0.48768  0.38288  0.56489
V24   V   0.48768  0.61712  0.93511
V25   V   0.51232  0.11712  0.56489
V26   V   0.51232  0.88288  0.93511
V27   V   0.56489  0.48768  0.38288
V28   V   0.56489  0.51232  0.11712
V29   V   0.61712  0.06489  0.01232
V30   V   0.61712  0.93511  0.48768
V31   V   0.63288  0.26232  0.68511
V32   V   0.63288  0.73768  0.81489
V33   V   0.68511  0.36712  0.23768
V34   V   0.68511  0.63288  0.26232
V35   V   0.73768  0.18511  0.86712
V36   V   0.73768  0.81489  0.63288
V37   V   0.76232  0.18511  0.13288
V38   V   0.76232  0.81489  0.36712
V39   V   0.81489  0.36712  0.76232
V40   V   0.81489  0.63288  0.73768
V41   V   0.86712  0.26232  0.31489
V42   V   0.86712  0.73768  0.18511
V43   V   0.88288  0.06489  0.98768
V44   V   0.88288  0.93511  0.51232
V45   V   0.93511  0.48768  0.61712
V46   V   0.93511  0.51232  0.88288
V47   V   0.98768  0.11712  0.43511
V48   V   0.98768  0.88288  0.06489
E1    E   0.02612  0.47372  0.93528
E2    E   0.02612  0.52628  0.56472
E3    E   0.02628  0.06472  0.52612
E4    E   0.02628  0.93528  0.97388
E5    E   0.06028  0.17740  0.37500
E6    E   0.06028  0.82260  0.12500
E7    E   0.06472  0.47388  0.47372
E8    E   0.06472  0.52612  0.02628
E9    E   0.07260  0.31028  0.37500
E10   E   0.07260  0.68972  0.12500
E11   E   0.12500  0.06028  0.82260
E12   E   0.12500  0.07260  0.68972
E13   E   0.12500  0.92740  0.81028
E14   E   0.12500  0.93972  0.67740
E15   E   0.17740  0.37500  0.06028
E16   E   0.17740  0.62500  0.43972
E17   E   0.18528  0.27628  0.22388
E18   E   0.18528  0.72372  0.27612
E19   E   0.18972  0.37500  0.92740
E20   E   0.18972  0.62500  0.57260
E21   E   0.22372  0.22388  0.81472
E22   E   0.22372  0.77612  0.68528
E23   E   0.22388  0.18528  0.27628
E24   E   0.22388  0.81472  0.22372
E25   E   0.27612  0.18528  0.72372
E26   E   0.27612  0.81472  0.77628
E27   E   0.27628  0.22388  0.18528
E28   E   0.27628  0.77612  0.31472
E29   E   0.31028  0.37500  0.07260
E30   E   0.31028  0.62500  0.42740
E31   E   0.31472  0.27628  0.77612
E32   E   0.31472  0.72372  0.72388
E33   E   0.32260  0.37500  0.93972
E34   E   0.32260  0.62500  0.56028
E35   E   0.37500  0.06028  0.17740
E36   E   0.37500  0.07260  0.31028
E37   E   0.37500  0.92740  0.18972
E38   E   0.37500  0.93972  0.32260
E39   E   0.42740  0.31028  0.62500
E40   E   0.42740  0.68972  0.87500
E41   E   0.43528  0.47388  0.52628
E42   E   0.43528  0.52612  0.97372
E43   E   0.43972  0.17740  0.62500
E44   E   0.43972  0.82260  0.87500
E45   E   0.47372  0.06472  0.47388
E46   E   0.47372  0.93528  0.02612
E47   E   0.47388  0.47372  0.06472
E48   E   0.47388  0.52628  0.43528
E49   E   0.52612  0.02628  0.06472
E50   E   0.52612  0.97372  0.43528
E51   E   0.52628  0.43528  0.47388
E52   E   0.52628  0.56472  0.02612
E53   E   0.56028  0.32260  0.62500
E54   E   0.56028  0.67740  0.87500
E55   E   0.56472  0.02612  0.52628
E56   E   0.56472  0.97388  0.97372
E57   E   0.57260  0.18972  0.62500
E58   E   0.57260  0.81028  0.87500
E59   E   0.62500  0.42740  0.31028
E60   E   0.62500  0.43972  0.17740
E61   E   0.62500  0.56028  0.32260
E62   E   0.62500  0.57260  0.18972
E63   E   0.67740  0.12500  0.93972
E64   E   0.67740  0.87500  0.56028
E65   E   0.68528  0.22372  0.77612
E66   E   0.68528  0.77628  0.72388
E67   E   0.68972  0.12500  0.07260
E68   E   0.68972  0.87500  0.42740
E69   E   0.72372  0.27612  0.18528
E70   E   0.72372  0.72388  0.31472
E71   E   0.72388  0.31472  0.72372
E72   E   0.72388  0.68528  0.77628
E73   E   0.77612  0.31472  0.27628
E74   E   0.77612  0.68528  0.22372
E75   E   0.77628  0.27612  0.81472
E76   E   0.77628  0.72388  0.68528
E77   E   0.81028  0.12500  0.92740
E78   E   0.81028  0.87500  0.57260
E79   E   0.81472  0.22372  0.22388
E80   E   0.81472  0.77628  0.27612
E81   E   0.82260  0.12500  0.06028
E82   E   0.82260  0.87500  0.43972
E83   E   0.87500  0.42740  0.68972
E84   E   0.87500  0.43972  0.82260
E85   E   0.87500  0.56028  0.67740
E86   E   0.87500  0.57260  0.81028
E87   E   0.92740  0.18972  0.37500
E88   E   0.92740  0.81028  0.12500
E89   E   0.93528  0.02612  0.47372
E90   E   0.93528  0.97388  0.02628
E91   E   0.93972  0.32260  0.37500
E92   E   0.93972  0.67740  0.12500
E93   E   0.97372  0.43528  0.52612
E94   E   0.97372  0.56472  0.97388
E95   E   0.97388  0.02628  0.93528
E96   E   0.97388  0.97372  0.56472
loop_
