data_umo_P6122  hall_number: 472, V_con: 4
_audit_creation_date              2025-03-06
_audit_creation_method            'MOFbuilder_1.0'
_symmetry_space_group_name_H-M    'P1'
_symmetry_Int_Tables_number       1
_symmetry_cell_setting            triclinic
loop_
_symmetry_equiv_pos_as_xyz
  x,y,z
_cell_length_a                    34.7448
_cell_length_b                    34.7448
_cell_length_c                    23.7856
_cell_angle_alpha                 90.0
_cell_angle_beta                  90.0
_cell_angle_gamma                 120.0
loop_
_atom_site_label
_atom_site_type_symbol
_atom_site_fract_x
_atom_site_fract_y
_atom_site_fract_z
V1    V   0.16259  0.55484  0.37671
V2    V   0.16259  0.60775  0.78996
V3    V   0.39225  0.55484  0.12329
V4    V   0.39225  0.83741  0.04338
V5    V   0.44516  0.60775  0.71004
V6    V   0.44516  0.83741  0.45662
V7    V   0.55484  0.16259  0.95662
V8    V   0.55484  0.39225  0.21004
V9    V   0.60775  0.16259  0.54338
V10   V   0.60775  0.44516  0.62329
V11   V   0.83741  0.39225  0.28996
V12   V   0.83741  0.44516  0.87671
E1    E   0.00000  0.47354  0.33333
E2    E   0.00000  0.47354  0.33334
E3    E   0.00000  0.52646  0.83333
E4    E   0.00000  0.52646  0.83334
E5    E   0.16259  0.58129  0.58334
E6    E   0.16259  0.58130  0.58333
E7    E   0.27742  0.55484  0.25000
E8    E   0.27742  0.72258  0.91667
E9    E   0.30388  0.60776  0.75000
E10   E   0.30388  0.69612  0.41667
E11   E   0.30388  0.60776  0.75000
E12   E   0.30388  0.69612  0.41666
E13   E   0.39224  0.69612  0.08333
E14   E   0.39224  0.69612  0.08334
E15   E   0.41870  0.58129  0.91666
E16   E   0.41870  0.83741  0.25000
E17   E   0.41871  0.58130  0.91667
E18   E   0.41871  0.83741  0.25000
E19   E   0.44516  0.72258  0.58333
E20   E   0.44516  0.72258  0.58333
E21   E   0.47354  0.00000  0.00000
E22   E   0.47354  0.00000  1.00000
E23   E   0.47354  0.47354  0.16666
E24   E   0.47354  0.47354  0.16667
E25   E   0.52646  0.00000  0.50000
E26   E   0.52646  0.00000  0.50000
E27   E   0.52646  0.52646  0.66666
E28   E   0.52646  0.52646  0.66667
E29   E   0.55484  0.27742  0.08333
E30   E   0.55484  0.27742  0.08333
E31   E   0.58129  0.16259  0.75000
E32   E   0.58129  0.41870  0.41667
E33   E   0.58130  0.16259  0.75000
E34   E   0.58130  0.41871  0.41666
E35   E   0.60776  0.30388  0.58334
E36   E   0.60776  0.30388  0.58333
E37   E   0.69612  0.30388  0.91666
E38   E   0.69612  0.39224  0.25000
E39   E   0.69612  0.30388  0.91667
E40   E   0.69612  0.39224  0.25000
E41   E   0.72258  0.27742  0.41667
E42   E   0.72258  0.44516  0.75000
E43   E   0.83741  0.41870  0.08333
E44   E   0.83741  0.41871  0.08334
loop_
