data_unx_F4132  hall_number: 506, V_con: 4
_audit_creation_date              2025-03-06
_audit_creation_method            'MOFbuilder_1.0'
_symmetry_space_group_name_H-M    'P1'
_symmetry_Int_Tables_number       1
_symmetry_cell_setting            triclinic
loop_
_symmetry_equiv_pos_as_xyz
  x,y,z
_cell_length_a                    39.4241
_cell_length_b                    39.4241
_cell_length_c                    39.4241
_cell_angle_alpha                 90.0
_cell_angle_beta                  90.0
_cell_angle_gamma                 90.0
loop_
_atom_site_label
_atom_site_type_symbol
_atom_site_fract_x
_atom_site_fract_y
_atom_site_fract_z
V1    V   0.02145  0.22855  0.62500
V2    V   0.02145  0.27145  0.87500
V3    V   0.02145  0.72855  0.12500
V4    V   0.02145  0.77145  0.37500
V5    V   0.02145  0.22855  0.62500
V6    V   0.02145  0.27145  0.87500
V7    V   0.02145  0.72855  0.12500
V8    V   0.02145  0.77145  0.37500
V9    V   0.12500  0.02145  0.72855
V10   V   0.12500  0.02145  0.72855
V11   V   0.12500  0.47855  0.77145
V12   V   0.12500  0.52145  0.22855
V13   V   0.12500  0.52145  0.22855
V14   V   0.12500  0.97855  0.27145
V15   V   0.22855  0.12500  0.52145
V16   V   0.22855  0.37500  0.97855
V17   V   0.22855  0.62500  0.02145
V18   V   0.22855  0.87500  0.47855
V19   V   0.22855  0.12500  0.52145
V20   V   0.22855  0.37500  0.97855
V21   V   0.22855  0.62500  0.02145
V22   V   0.22855  0.87500  0.47855
V23   V   0.27145  0.12500  0.97855
V24   V   0.27145  0.37500  0.52145
V25   V   0.27145  0.62500  0.47855
V26   V   0.27145  0.87500  0.02145
V27   V   0.27145  0.87500  0.02145
V28   V   0.37500  0.02145  0.77145
V29   V   0.37500  0.02145  0.77145
V30   V   0.37500  0.47855  0.72855
V31   V   0.37500  0.52145  0.27145
V32   V   0.37500  0.97855  0.22855
V33   V   0.37500  0.97855  0.22855
V34   V   0.47855  0.22855  0.87500
V35   V   0.47855  0.22855  0.87500
V36   V   0.47855  0.27145  0.62500
V37   V   0.47855  0.72855  0.37500
V38   V   0.47855  0.77145  0.12500
V39   V   0.52145  0.22855  0.12500
V40   V   0.52145  0.22855  0.12500
V41   V   0.52145  0.27145  0.37500
V42   V   0.52145  0.72855  0.62500
V43   V   0.52145  0.77145  0.87500
V44   V   0.62500  0.02145  0.22855
V45   V   0.62500  0.02145  0.22855
V46   V   0.62500  0.47855  0.27145
V47   V   0.62500  0.52145  0.72855
V48   V   0.62500  0.97855  0.77145
V49   V   0.72855  0.12500  0.02145
V50   V   0.72855  0.12500  0.02145
V51   V   0.72855  0.37500  0.47855
V52   V   0.72855  0.62500  0.52145
V53   V   0.72855  0.87500  0.97855
V54   V   0.77145  0.12500  0.47855
V55   V   0.77145  0.37500  0.02145
V56   V   0.77145  0.37500  0.02145
V57   V   0.77145  0.62500  0.97855
V58   V   0.77145  0.87500  0.52145
V59   V   0.87500  0.02145  0.27145
V60   V   0.87500  0.02145  0.27145
V61   V   0.87500  0.47855  0.22855
V62   V   0.87500  0.47855  0.22855
V63   V   0.87500  0.52145  0.77145
V64   V   0.87500  0.97855  0.72855
V65   V   0.97855  0.22855  0.37500
V66   V   0.97855  0.22855  0.37500
V67   V   0.97855  0.27145  0.12500
V68   V   0.97855  0.72855  0.87500
V69   V   0.97855  0.77145  0.62500
E1    E   0.00000  0.00000  0.27145
E2    E   0.00000  0.00000  0.72855
E3    E   0.00000  0.22855  0.50000
E4    E   0.00000  0.27145  0.00000
E5    E   0.00000  0.50000  0.22855
E6    E   0.00000  0.50000  0.77145
E7    E   0.00000  0.72855  0.00000
E8    E   0.00000  0.77145  0.50000
E9    E   0.02145  0.25000  0.75000
E10   E   0.02145  0.75000  0.25000
E11   E   0.07322  0.12500  0.67678
E12   E   0.07322  0.37500  0.82322
E13   E   0.07322  0.62500  0.17678
E14   E   0.07322  0.87500  0.32322
E15   E   0.07322  0.12500  0.67678
E16   E   0.07322  0.37500  0.82322
E17   E   0.07322  0.62500  0.17678
E18   E   0.07322  0.87500  0.32322
E19   E   0.12500  0.17678  0.57322
E20   E   0.12500  0.17678  0.57322
E21   E   0.12500  0.32322  0.92678
E22   E   0.12500  0.32322  0.92678
E23   E   0.12500  0.67678  0.07322
E24   E   0.12500  0.67678  0.07322
E25   E   0.12500  0.82322  0.42678
E26   E   0.12500  0.82322  0.42678
E27   E   0.17678  0.07322  0.62500
E28   E   0.17678  0.42678  0.87500
E29   E   0.17678  0.57322  0.12500
E30   E   0.17678  0.92678  0.37500
E31   E   0.17678  0.07322  0.62500
E32   E   0.17678  0.42678  0.87500
E33   E   0.17678  0.57322  0.12500
E34   E   0.17678  0.92678  0.37500
E35   E   0.22855  0.00000  0.50000
E36   E   0.22855  0.50000  0.00000
E37   E   0.25000  0.02145  0.75000
E38   E   0.25000  0.25000  0.52145
E39   E   0.25000  0.25000  0.97855
E40   E   0.25000  0.47855  0.75000
E41   E   0.25000  0.52145  0.25000
E42   E   0.25000  0.75000  0.02145
E43   E   0.25000  0.75000  0.47855
E44   E   0.25000  0.97855  0.25000
E45   E   0.27145  0.00000  0.00000
E46   E   0.27145  0.50000  0.50000
E47   E   0.32322  0.07322  0.87500
E48   E   0.32322  0.42678  0.62500
E49   E   0.32322  0.57322  0.37500
E50   E   0.32322  0.92678  0.12500
E51   E   0.32322  0.07322  0.87500
E52   E   0.32322  0.42678  0.62500
E53   E   0.32322  0.57322  0.37500
E54   E   0.32322  0.92678  0.12500
E55   E   0.37500  0.17678  0.92678
E56   E   0.37500  0.17678  0.92678
E57   E   0.37500  0.32322  0.57322
E58   E   0.37500  0.32322  0.57322
E59   E   0.37500  0.67678  0.42678
E60   E   0.37500  0.67678  0.42678
E61   E   0.37500  0.82322  0.07322
E62   E   0.37500  0.82322  0.07322
E63   E   0.42678  0.12500  0.82322
E64   E   0.42678  0.37500  0.67678
E65   E   0.42678  0.62500  0.32322
E66   E   0.42678  0.87500  0.17678
E67   E   0.42678  0.12500  0.82322
E68   E   0.42678  0.37500  0.67678
E69   E   0.42678  0.62500  0.32322
E70   E   0.42678  0.87500  0.17678
E71   E   0.47855  0.25000  0.75000
E72   E   0.47855  0.75000  0.25000
E73   E   0.50000  0.00000  0.22855
E74   E   0.50000  0.00000  0.77145
E75   E   0.50000  0.22855  0.00000
E76   E   0.50000  0.27145  0.50000
E77   E   0.50000  0.50000  0.27145
E78   E   0.50000  0.50000  0.72855
E79   E   0.50000  0.72855  0.50000
E80   E   0.50000  0.77145  0.00000
E81   E   0.52145  0.25000  0.25000
E82   E   0.52145  0.75000  0.75000
E83   E   0.57322  0.12500  0.17678
E84   E   0.57322  0.37500  0.32322
E85   E   0.57322  0.62500  0.67678
E86   E   0.57322  0.87500  0.82322
E87   E   0.57322  0.12500  0.17678
E88   E   0.57322  0.37500  0.32322
E89   E   0.57322  0.62500  0.67678
E90   E   0.57322  0.87500  0.82322
E91   E   0.62500  0.17678  0.07322
E92   E   0.62500  0.17678  0.07322
E93   E   0.62500  0.32322  0.42678
E94   E   0.62500  0.32322  0.42678
E95   E   0.62500  0.67678  0.57322
E96   E   0.62500  0.67678  0.57322
E97   E   0.62500  0.82322  0.92678
E98   E   0.62500  0.82322  0.92678
E99   E   0.67678  0.07322  0.12500
E100  E   0.67678  0.42678  0.37500
E101  E   0.67678  0.57322  0.62500
E102  E   0.67678  0.92678  0.87500
E103  E   0.67678  0.07322  0.12500
E104  E   0.67678  0.42678  0.37500
E105  E   0.67678  0.57322  0.62500
E106  E   0.67678  0.92678  0.87500
E107  E   0.72855  0.00000  0.00000
E108  E   0.72855  0.50000  0.50000
E109  E   0.75000  0.02145  0.25000
E110  E   0.75000  0.25000  0.02145
E111  E   0.75000  0.25000  0.47855
E112  E   0.75000  0.47855  0.25000
E113  E   0.75000  0.52145  0.75000
E114  E   0.75000  0.75000  0.52145
E115  E   0.75000  0.75000  0.97855
E116  E   0.75000  0.97855  0.75000
E117  E   0.77145  0.00000  0.50000
E118  E   0.77145  0.50000  0.00000
E119  E   0.82322  0.07322  0.37500
E120  E   0.82322  0.42678  0.12500
E121  E   0.82322  0.57322  0.87500
E122  E   0.82322  0.92678  0.62500
E123  E   0.82322  0.07322  0.37500
E124  E   0.82322  0.42678  0.12500
E125  E   0.82322  0.57322  0.87500
E126  E   0.82322  0.92678  0.62500
E127  E   0.87500  0.17678  0.42678
E128  E   0.87500  0.17678  0.42678
E129  E   0.87500  0.32322  0.07322
E130  E   0.87500  0.32322  0.07322
E131  E   0.87500  0.67678  0.92678
E132  E   0.87500  0.67678  0.92678
E133  E   0.87500  0.82322  0.57322
E134  E   0.87500  0.82322  0.57322
E135  E   0.92678  0.12500  0.32322
E136  E   0.92678  0.37500  0.17678
E137  E   0.92678  0.62500  0.82322
E138  E   0.92678  0.87500  0.67678
E139  E   0.92678  0.12500  0.32322
E140  E   0.92678  0.37500  0.17678
E141  E   0.92678  0.62500  0.82322
E142  E   0.92678  0.87500  0.67678
E143  E   0.97855  0.25000  0.25000
E144  E   0.97855  0.75000  0.75000
loop_
