data_uof_P6222  hall_number: 474, V_con: 4
_audit_creation_date              2025-03-06
_audit_creation_method            'MOFbuilder_1.0'
_symmetry_space_group_name_H-M    'P1'
_symmetry_Int_Tables_number       1
_symmetry_cell_setting            triclinic
loop_
_symmetry_equiv_pos_as_xyz
  x,y,z
_cell_length_a                    21.1455
_cell_length_b                    21.1455
_cell_length_c                    44.1863
_cell_angle_alpha                 90.0
_cell_angle_beta                  90.0
_cell_angle_gamma                 120.0
loop_
_atom_site_label
_atom_site_type_symbol
_atom_site_fract_x
_atom_site_fract_y
_atom_site_fract_z
V1    V   0.08519  0.31794  0.77417
V2    V   0.08519  0.76725  0.55916
V3    V   0.23275  0.31794  0.22583
V4    V   0.23275  0.91481  0.10750
V5    V   0.31794  0.08519  0.89250
V6    V   0.31794  0.23275  0.44084
V7    V   0.68206  0.76725  0.44084
V8    V   0.68206  0.91481  0.89250
V9    V   0.76725  0.08519  0.10750
V10   V   0.76725  0.68206  0.22583
V11   V   0.91481  0.23275  0.55916
V12   V   0.91481  0.68206  0.77417
E1    E   0.00000  0.20157  0.16666
E2    E   0.00000  0.20157  0.16667
E3    E   0.00000  0.27535  0.66666
E4    E   0.00000  0.27535  0.66667
E5    E   0.00000  0.50000  0.55916
E6    E   0.00000  0.50000  0.77417
E7    E   0.00000  0.72465  0.66666
E8    E   0.00000  0.72465  0.66667
E9    E   0.00000  0.79843  0.16666
E10   E   0.00000  0.79843  0.16667
E11   E   0.11637  0.23275  0.50000
E12   E   0.11637  0.88362  0.83333
E13   E   0.11638  0.23275  0.50000
E14   E   0.11638  0.88363  0.83334
E15   E   0.20157  0.00000  0.50000
E16   E   0.20157  0.00000  0.50000
E17   E   0.20157  0.20157  0.83333
E18   E   0.20157  0.20157  0.83334
E19   E   0.23275  0.11637  0.16666
E20   E   0.23275  0.11638  0.16667
E21   E   0.27535  0.00000  0.00000
E22   E   0.27535  0.00000  1.00000
E23   E   0.27535  0.27535  0.33333
E24   E   0.27535  0.27535  0.33334
E25   E   0.50000  0.00000  0.10750
E26   E   0.50000  0.00000  0.89250
E27   E   0.50000  0.50000  0.22583
E28   E   0.50000  0.50000  0.44084
E29   E   0.72465  0.00000  0.00000
E30   E   0.72465  0.00000  1.00000
E31   E   0.72465  0.72465  0.33333
E32   E   0.72465  0.72465  0.33334
E33   E   0.76725  0.88362  0.16667
E34   E   0.76725  0.88363  0.16666
E35   E   0.79843  0.00000  0.50000
E36   E   0.79843  0.00000  0.50000
E37   E   0.79843  0.79843  0.83333
E38   E   0.79843  0.79843  0.83334
E39   E   0.88362  0.11637  0.83334
E40   E   0.88362  0.76725  0.50000
E41   E   0.88363  0.11638  0.83333
E42   E   0.88363  0.76725  0.50000
loop_
