data_uoi_I41/acd:2  hall_number: 429, V_con: 4
_audit_creation_date              2025-03-06
_audit_creation_method            'MOFbuilder_1.0'
_symmetry_space_group_name_H-M    'P1'
_symmetry_Int_Tables_number       1
_symmetry_cell_setting            triclinic
loop_
_symmetry_equiv_pos_as_xyz
  x,y,z
_cell_length_a                    55.893
_cell_length_b                    55.893
_cell_length_c                    13.8309
_cell_angle_alpha                 90.0
_cell_angle_beta                  90.0
_cell_angle_gamma                 90.0
loop_
_atom_site_label
_atom_site_type_symbol
_atom_site_fract_x
_atom_site_fract_y
_atom_site_fract_z
V1    V   0.06462  0.07257  0.96138
V2    V   0.06462  0.42743  0.46138
V3    V   0.06462  0.57257  0.03862
V4    V   0.06462  0.92743  0.53862
V5    V   0.17743  0.18538  0.28862
V6    V   0.17743  0.31462  0.78862
V7    V   0.17743  0.68538  0.71138
V8    V   0.17743  0.81462  0.21138
V9    V   0.32257  0.18538  0.71138
V10   V   0.32257  0.31462  0.21138
V11   V   0.32257  0.68538  0.28862
V12   V   0.32257  0.81462  0.78862
V13   V   0.43538  0.07257  0.03862
V14   V   0.43538  0.42743  0.53862
V15   V   0.43538  0.57257  0.96138
V16   V   0.43538  0.92743  0.46138
V17   V   0.56462  0.07257  0.53862
V18   V   0.56462  0.42743  0.03862
V19   V   0.56462  0.57257  0.46138
V20   V   0.56462  0.92743  0.96138
V21   V   0.67743  0.18538  0.21138
V22   V   0.67743  0.31462  0.71138
V23   V   0.67743  0.68538  0.78862
V24   V   0.67743  0.81462  0.28862
V25   V   0.82257  0.18538  0.78862
V26   V   0.82257  0.31462  0.28862
V27   V   0.82257  0.68538  0.21138
V28   V   0.82257  0.81462  0.71138
V29   V   0.93538  0.07257  0.46138
V30   V   0.93538  0.42743  0.96138
V31   V   0.93538  0.57257  0.53862
V32   V   0.93538  0.92743  0.03862
E1    E   0.00000  0.07257  0.21138
E2    E   0.00000  0.07257  0.71138
E3    E   0.00000  0.42743  0.21138
E4    E   0.00000  0.42743  0.71138
E5    E   0.00000  0.57257  0.28862
E6    E   0.00000  0.57257  0.78862
E7    E   0.00000  0.92743  0.28862
E8    E   0.00000  0.92743  0.78862
E9    E   0.06462  0.00000  0.75000
E10   E   0.06462  0.50000  0.25000
E11   E   0.12102  0.12898  0.12500
E12   E   0.12102  0.37102  0.62500
E13   E   0.12102  0.62898  0.87500
E14   E   0.12102  0.87102  0.37500
E15   E   0.12102  0.12898  0.12500
E16   E   0.12102  0.37102  0.62500
E17   E   0.12102  0.62898  0.87500
E18   E   0.12102  0.87102  0.37500
E19   E   0.17743  0.25000  0.03862
E20   E   0.17743  0.25000  0.53862
E21   E   0.17743  0.75000  0.46138
E22   E   0.17743  0.75000  0.96138
E23   E   0.25000  0.18538  0.50000
E24   E   0.25000  0.31462  0.00000
E25   E   0.25000  0.68538  0.50000
E26   E   0.25000  0.81462  0.00000
E27   E   0.32257  0.25000  0.46138
E28   E   0.32257  0.25000  0.96138
E29   E   0.32257  0.75000  0.03862
E30   E   0.32257  0.75000  0.53862
E31   E   0.37898  0.12898  0.87500
E32   E   0.37898  0.12898  0.87500
E33   E   0.37898  0.37102  0.37500
E34   E   0.37898  0.62898  0.12500
E35   E   0.37898  0.87102  0.62500
E36   E   0.43538  0.00000  0.25000
E37   E   0.43538  0.50000  0.75000
E38   E   0.50000  0.07257  0.28862
E39   E   0.50000  0.07257  0.78862
E40   E   0.50000  0.42743  0.28862
E41   E   0.50000  0.42743  0.78862
E42   E   0.50000  0.57257  0.21138
E43   E   0.50000  0.57257  0.71138
E44   E   0.50000  0.92743  0.21138
E45   E   0.50000  0.92743  0.71138
E46   E   0.56462  0.00000  0.75000
E47   E   0.56462  0.50000  0.25000
E48   E   0.62102  0.12898  0.37500
E49   E   0.62102  0.12898  0.37500
E50   E   0.62102  0.37102  0.87500
E51   E   0.62102  0.62898  0.62500
E52   E   0.62102  0.87102  0.12500
E53   E   0.67743  0.25000  0.46138
E54   E   0.67743  0.25000  0.96138
E55   E   0.67743  0.75000  0.03862
E56   E   0.67743  0.75000  0.53862
E57   E   0.75000  0.18538  0.00000
E58   E   0.75000  0.31462  0.50000
E59   E   0.75000  0.68538  0.00000
E60   E   0.75000  0.81462  0.50000
E61   E   0.82257  0.25000  0.03862
E62   E   0.82257  0.25000  0.53862
E63   E   0.82257  0.75000  0.46138
E64   E   0.82257  0.75000  0.96138
E65   E   0.87898  0.12898  0.62500
E66   E   0.87898  0.12898  0.62500
E67   E   0.87898  0.37102  0.12500
E68   E   0.87898  0.62898  0.37500
E69   E   0.87898  0.87102  0.87500
E70   E   0.93538  0.00000  0.25000
E71   E   0.93538  0.50000  0.75000
loop_
