data_uol_P6122  hall_number: 472, V_con: 4
_audit_creation_date              2025-03-06
_audit_creation_method            'MOFbuilder_1.0'
_symmetry_space_group_name_H-M    'P1'
_symmetry_Int_Tables_number       1
_symmetry_cell_setting            triclinic
loop_
_symmetry_equiv_pos_as_xyz
  x,y,z
_cell_length_a                    22.6834
_cell_length_b                    22.6834
_cell_length_c                    43.1971
_cell_angle_alpha                 90.0
_cell_angle_beta                  90.0
_cell_angle_gamma                 120.0
loop_
_atom_site_label
_atom_site_type_symbol
_atom_site_fract_x
_atom_site_fract_y
_atom_site_fract_z
V1    V   0.12445  0.34857  0.11181
V2    V   0.12445  0.77588  0.05486
V3    V   0.22412  0.34857  0.38819
V4    V   0.22412  0.87555  0.77848
V5    V   0.34857  0.12445  0.22152
V6    V   0.34857  0.22412  0.94514
V7    V   0.65143  0.77588  0.44514
V8    V   0.65143  0.87555  0.72152
V9    V   0.77588  0.12445  0.27848
V10   V   0.77588  0.65143  0.88819
V11   V   0.87555  0.22412  0.55486
V12   V   0.87555  0.65143  0.61181
E1    E   0.00000  0.23651  0.33333
E2    E   0.00000  0.23651  0.33334
E3    E   0.00000  0.76349  0.83333
E4    E   0.00000  0.76349  0.83334
E5    E   0.04984  0.28635  0.47153
E6    E   0.04984  0.76349  0.69514
E7    E   0.12445  0.56222  0.08333
E8    E   0.12445  0.56223  0.08334
E9    E   0.23651  0.00000  0.00000
E10   E   0.23651  0.00000  1.00000
E11   E   0.23651  0.23651  0.16666
E12   E   0.23651  0.23651  0.16667
E13   E   0.23651  0.28635  0.02847
E14   E   0.23651  0.95016  0.13820
E15   E   0.28635  0.04984  0.86180
E16   E   0.28635  0.23651  0.30486
E17   E   0.43777  0.56222  0.41667
E18   E   0.43777  0.87555  0.75000
E19   E   0.43778  0.56223  0.41666
E20   E   0.43778  0.87555  0.75000
E21   E   0.56222  0.12445  0.25000
E22   E   0.56222  0.43777  0.91666
E23   E   0.56223  0.12445  0.25000
E24   E   0.56223  0.43778  0.91667
E25   E   0.71365  0.76349  0.80486
E26   E   0.71365  0.95016  0.36180
E27   E   0.76349  0.00000  0.50000
E28   E   0.76349  0.00000  0.50000
E29   E   0.76349  0.04984  0.63820
E30   E   0.76349  0.71365  0.52847
E31   E   0.76349  0.76349  0.66666
E32   E   0.76349  0.76349  0.66667
E33   E   0.87555  0.43777  0.58334
E34   E   0.87555  0.43778  0.58333
E35   E   0.95016  0.23651  0.19514
E36   E   0.95016  0.71365  0.97153
loop_
