data_uop_P6222  hall_number: 474, V_con: 4
_audit_creation_date              2025-03-06
_audit_creation_method            'MOFbuilder_1.0'
_symmetry_space_group_name_H-M    'P1'
_symmetry_Int_Tables_number       1
_symmetry_cell_setting            triclinic
loop_
_symmetry_equiv_pos_as_xyz
  x,y,z
_cell_length_a                    21.2651
_cell_length_b                    21.2651
_cell_length_c                    37.6358
_cell_angle_alpha                 90.0
_cell_angle_beta                  90.0
_cell_angle_gamma                 120.0
loop_
_atom_site_label
_atom_site_type_symbol
_atom_site_fract_x
_atom_site_fract_y
_atom_site_fract_z
V1    V   0.18028  0.41433  0.76600
V2    V   0.18028  0.76595  0.56733
V3    V   0.23405  0.41433  0.23400
V4    V   0.23405  0.81972  0.09933
V5    V   0.41433  0.18028  0.90067
V6    V   0.41433  0.23405  0.43267
V7    V   0.58567  0.76595  0.43267
V8    V   0.58567  0.81972  0.90067
V9    V   0.76595  0.18028  0.09933
V10   V   0.76595  0.58567  0.23400
V11   V   0.81972  0.23405  0.56733
V12   V   0.81972  0.58567  0.76600
E1    E   0.00000  0.29730  0.16666
E2    E   0.00000  0.29730  0.16667
E3    E   0.00000  0.32419  0.66666
E4    E   0.00000  0.32419  0.66667
E5    E   0.00000  0.50000  0.56733
E6    E   0.00000  0.50000  0.76600
E7    E   0.00000  0.67581  0.66666
E8    E   0.00000  0.67581  0.66667
E9    E   0.00000  0.70270  0.16666
E10   E   0.00000  0.70270  0.16667
E11   E   0.23405  0.61702  0.16666
E12   E   0.23405  0.61703  0.16667
E13   E   0.29730  0.00000  0.50000
E14   E   0.29730  0.00000  0.50000
E15   E   0.29730  0.29730  0.83333
E16   E   0.29730  0.29730  0.83334
E17   E   0.32419  0.00000  0.00000
E18   E   0.32419  0.00000  1.00000
E19   E   0.32419  0.32419  0.33333
E20   E   0.32419  0.32419  0.33334
E21   E   0.38297  0.61702  0.83334
E22   E   0.38297  0.76595  0.50000
E23   E   0.38298  0.61703  0.83333
E24   E   0.38298  0.76595  0.50000
E25   E   0.50000  0.00000  0.09933
E26   E   0.50000  0.00000  0.90067
E27   E   0.50000  0.50000  0.23400
E28   E   0.50000  0.50000  0.43267
E29   E   0.61702  0.23405  0.50000
E30   E   0.61702  0.38297  0.83333
E31   E   0.61703  0.23405  0.50000
E32   E   0.61703  0.38298  0.83334
E33   E   0.67581  0.00000  0.00000
E34   E   0.67581  0.00000  1.00000
E35   E   0.67581  0.67581  0.33333
E36   E   0.67581  0.67581  0.33334
E37   E   0.70270  0.00000  0.50000
E38   E   0.70270  0.00000  0.50000
E39   E   0.70270  0.70270  0.83333
E40   E   0.70270  0.70270  0.83334
E41   E   0.76595  0.38297  0.16667
E42   E   0.76595  0.38298  0.16666
loop_
