data_utc_I4132  hall_number: 510, V_con: 3
_audit_creation_date              2025-03-06
_audit_creation_method            'MOFbuilder_1.0'
_symmetry_space_group_name_H-M    'P1'
_symmetry_Int_Tables_number       1
_symmetry_cell_setting            triclinic
loop_
_symmetry_equiv_pos_as_xyz
  x,y,z
_cell_length_a                    51.0244
_cell_length_b                    51.0244
_cell_length_c                    51.0244
_cell_angle_alpha                 90.0
_cell_angle_beta                  90.0
_cell_angle_gamma                 90.0
loop_
_atom_site_label
_atom_site_type_symbol
_atom_site_fract_x
_atom_site_fract_y
_atom_site_fract_z
V1    V   0.04677  0.16389  0.33044
V2    V   0.04677  0.83611  0.16956
V3    V   0.08044  0.41389  0.20323
V4    V   0.08044  0.58611  0.29677
V5    V   0.08611  0.20323  0.91956
V6    V   0.08611  0.79677  0.58044
V7    V   0.16389  0.33044  0.04677
V8    V   0.16389  0.66956  0.45323
V9    V   0.16956  0.04677  0.83611
V10   V   0.16956  0.95323  0.66389
V11   V   0.20323  0.08044  0.41389
V12   V   0.20323  0.91956  0.08611
V13   V   0.29677  0.08044  0.58611
V14   V   0.29677  0.91956  0.91389
V15   V   0.33044  0.04677  0.16389
V16   V   0.33044  0.95323  0.33611
V17   V   0.33611  0.33044  0.95323
V18   V   0.33611  0.66956  0.54677
V19   V   0.41389  0.20323  0.08044
V20   V   0.41389  0.79677  0.41956
V21   V   0.41956  0.41389  0.79677
V22   V   0.41956  0.58611  0.70323
V23   V   0.45323  0.16389  0.66956
V24   V   0.45323  0.83611  0.83044
V25   V   0.54677  0.33611  0.66956
V26   V   0.54677  0.66389  0.83044
V27   V   0.58044  0.08611  0.79677
V28   V   0.58044  0.91389  0.70323
V29   V   0.58611  0.29677  0.08044
V30   V   0.58611  0.70323  0.41956
V31   V   0.66389  0.16956  0.95323
V32   V   0.66389  0.83044  0.54677
V33   V   0.66956  0.45323  0.16389
V34   V   0.66956  0.54677  0.33611
V35   V   0.70323  0.41956  0.58611
V36   V   0.70323  0.58044  0.91389
V37   V   0.79677  0.41956  0.41389
V38   V   0.79677  0.58044  0.08611
V39   V   0.83044  0.45323  0.83611
V40   V   0.83044  0.54677  0.66389
V41   V   0.83611  0.16956  0.04677
V42   V   0.83611  0.83044  0.45323
V43   V   0.91389  0.29677  0.91956
V44   V   0.91389  0.70323  0.58044
V45   V   0.91956  0.08611  0.20323
V46   V   0.91956  0.91389  0.29677
V47   V   0.95323  0.33611  0.33044
V48   V   0.95323  0.66389  0.16956
E1    E   0.00000  0.25000  0.33044
E2    E   0.00000  0.25000  0.91956
E3    E   0.00000  0.75000  0.16956
E4    E   0.00000  0.75000  0.58044
E5    E   0.01683  0.37500  0.26683
E6    E   0.01683  0.62500  0.23317
E7    E   0.01683  0.37500  0.26683
E8    E   0.01683  0.62500  0.23317
E9    E   0.08044  0.50000  0.25000
E10   E   0.12216  0.37216  0.12500
E11   E   0.12216  0.62784  0.37500
E12   E   0.12216  0.37216  0.12500
E13   E   0.12216  0.62784  0.37500
E14   E   0.12500  0.12216  0.37216
E15   E   0.12500  0.12216  0.37216
E16   E   0.12500  0.26683  0.98317
E17   E   0.12500  0.73317  0.51683
E18   E   0.12500  0.87784  0.12784
E19   E   0.12784  0.12500  0.87784
E20   E   0.12784  0.87500  0.62216
E21   E   0.16956  0.00000  0.75000
E22   E   0.23317  0.01683  0.62500
E23   E   0.23317  0.01683  0.62500
E24   E   0.23317  0.98317  0.87500
E25   E   0.25000  0.08044  0.50000
E26   E   0.25000  0.33044  0.00000
E27   E   0.25000  0.66956  0.50000
E28   E   0.25000  0.91956  0.00000
E29   E   0.26683  0.01683  0.37500
E30   E   0.26683  0.01683  0.37500
E31   E   0.26683  0.98317  0.12500
E32   E   0.33044  0.00000  0.25000
E33   E   0.37216  0.12500  0.12216
E34   E   0.37216  0.12500  0.12216
E35   E   0.37216  0.87500  0.37784
E36   E   0.37500  0.12216  0.62784
E37   E   0.37500  0.12216  0.62784
E38   E   0.37500  0.26683  0.01683
E39   E   0.37500  0.26683  0.01683
E40   E   0.37500  0.73317  0.48317
E41   E   0.37500  0.87784  0.87216
E42   E   0.37784  0.37216  0.87500
E43   E   0.37784  0.62784  0.62500
E44   E   0.41956  0.50000  0.75000
E45   E   0.48317  0.37500  0.73317
E46   E   0.48317  0.62500  0.76683
E47   E   0.50000  0.25000  0.08044
E48   E   0.50000  0.25000  0.66956
E49   E   0.50000  0.75000  0.41956
E50   E   0.50000  0.75000  0.83044
E51   E   0.51683  0.12500  0.73317
E52   E   0.51683  0.87500  0.76683
E53   E   0.58044  0.00000  0.75000
E54   E   0.62216  0.12784  0.87500
E55   E   0.62216  0.87216  0.62500
E56   E   0.62500  0.23317  0.01683
E57   E   0.62500  0.23317  0.01683
E58   E   0.62500  0.37784  0.62784
E59   E   0.62500  0.62216  0.87216
E60   E   0.62500  0.76683  0.48317
E61   E   0.62784  0.37500  0.12216
E62   E   0.62784  0.37500  0.12216
E63   E   0.62784  0.62500  0.37784
E64   E   0.66956  0.50000  0.25000
E65   E   0.73317  0.48317  0.37500
E66   E   0.73317  0.51683  0.12500
E67   E   0.75000  0.16956  0.00000
E68   E   0.75000  0.41956  0.50000
E69   E   0.75000  0.58044  0.00000
E70   E   0.75000  0.83044  0.50000
E71   E   0.76683  0.48317  0.62500
E72   E   0.76683  0.51683  0.87500
E73   E   0.83044  0.50000  0.75000
E74   E   0.87216  0.37500  0.87784
E75   E   0.87216  0.62500  0.62216
E76   E   0.87500  0.23317  0.98317
E77   E   0.87500  0.37784  0.37216
E78   E   0.87500  0.62216  0.12784
E79   E   0.87500  0.76683  0.51683
E80   E   0.87784  0.12784  0.12500
E81   E   0.87784  0.87216  0.37500
E82   E   0.91956  0.00000  0.25000
E83   E   0.98317  0.12500  0.26683
E84   E   0.98317  0.87500  0.23317
loop_
