data_vab_Ia-3d  hall_number: 530, V_con: 3
_audit_creation_date              2025-03-06
_audit_creation_method            'MOFbuilder_1.0'
_symmetry_space_group_name_H-M    'P1'
_symmetry_Int_Tables_number       1
_symmetry_cell_setting            triclinic
loop_
_symmetry_equiv_pos_as_xyz
  x,y,z
_cell_length_a                    40.0
_cell_length_b                    40.0
_cell_length_c                    40.0
_cell_angle_alpha                 90.0
_cell_angle_beta                  90.0
_cell_angle_gamma                 90.0
loop_
_atom_site_label
_atom_site_type_symbol
_atom_site_fract_x
_atom_site_fract_y
_atom_site_fract_z
V1    V   0.00000  0.00000  0.25000
V2    V   0.00000  0.00000  0.75000
V3    V   0.00000  0.25000  0.00000
V4    V   0.00000  0.25000  0.25000
V5    V   0.00000  0.25000  0.50000
V6    V   0.00000  0.25000  0.75000
V7    V   0.00000  0.50000  0.25000
V8    V   0.00000  0.50000  0.75000
V9    V   0.00000  0.75000  0.00000
V10   V   0.00000  0.75000  0.25000
V11   V   0.00000  0.75000  0.50000
V12   V   0.00000  0.75000  0.75000
V13   V   0.25000  0.00000  0.00000
V14   V   0.25000  0.00000  0.25000
V15   V   0.25000  0.00000  0.50000
V16   V   0.25000  0.00000  0.75000
V17   V   0.25000  0.25000  0.00000
V18   V   0.25000  0.25000  0.50000
V19   V   0.25000  0.50000  0.00000
V20   V   0.25000  0.50000  0.25000
V21   V   0.25000  0.50000  0.50000
V22   V   0.25000  0.50000  0.75000
V23   V   0.25000  0.75000  0.00000
V24   V   0.25000  0.75000  0.50000
V25   V   0.50000  0.00000  0.25000
V26   V   0.50000  0.00000  0.75000
V27   V   0.50000  0.25000  0.00000
V28   V   0.50000  0.25000  0.25000
V29   V   0.50000  0.25000  0.50000
V30   V   0.50000  0.25000  0.75000
V31   V   0.50000  0.50000  0.25000
V32   V   0.50000  0.50000  0.75000
V33   V   0.50000  0.75000  0.00000
V34   V   0.50000  0.75000  0.25000
V35   V   0.50000  0.75000  0.50000
V36   V   0.50000  0.75000  0.75000
V37   V   0.75000  0.00000  0.00000
V38   V   0.75000  0.00000  0.25000
V39   V   0.75000  0.00000  0.50000
V40   V   0.75000  0.00000  0.75000
V41   V   0.75000  0.25000  0.00000
V42   V   0.75000  0.25000  0.50000
V43   V   0.75000  0.50000  0.00000
V44   V   0.75000  0.50000  0.25000
V45   V   0.75000  0.50000  0.50000
V46   V   0.75000  0.50000  0.75000
V47   V   0.75000  0.75000  0.00000
V48   V   0.75000  0.75000  0.50000
E1    E   0.00000  0.12500  0.25000
E2    E   0.00000  0.12500  0.75000
E3    E   0.00000  0.25000  0.37500
E4    E   0.00000  0.25000  0.87500
E5    E   0.00000  0.37500  0.25000
E6    E   0.00000  0.37500  0.75000
E7    E   0.00000  0.62500  0.25000
E8    E   0.00000  0.62500  0.75000
E9    E   0.00000  0.75000  0.12500
E10   E   0.00000  0.75000  0.62500
E11   E   0.00000  0.87500  0.25000
E12   E   0.00000  0.87500  0.75000
E13   E   0.12500  0.00000  0.75000
E14   E   0.12500  0.25000  0.00000
E15   E   0.12500  0.25000  0.50000
E16   E   0.12500  0.50000  0.25000
E17   E   0.12500  0.75000  0.00000
E18   E   0.12500  0.75000  0.50000
E19   E   0.25000  0.00000  0.12500
E20   E   0.25000  0.00000  0.37500
E21   E   0.25000  0.00000  0.62500
E22   E   0.25000  0.00000  0.87500
E23   E   0.25000  0.12500  0.50000
E24   E   0.25000  0.37500  0.00000
E25   E   0.25000  0.50000  0.12500
E26   E   0.25000  0.50000  0.37500
E27   E   0.25000  0.50000  0.62500
E28   E   0.25000  0.50000  0.87500
E29   E   0.25000  0.62500  0.50000
E30   E   0.25000  0.87500  0.00000
E31   E   0.37500  0.00000  0.25000
E32   E   0.37500  0.25000  0.00000
E33   E   0.37500  0.25000  0.50000
E34   E   0.37500  0.50000  0.75000
E35   E   0.37500  0.75000  0.00000
E36   E   0.37500  0.75000  0.50000
E37   E   0.50000  0.12500  0.25000
E38   E   0.50000  0.12500  0.75000
E39   E   0.50000  0.25000  0.12500
E40   E   0.50000  0.25000  0.62500
E41   E   0.50000  0.37500  0.25000
E42   E   0.50000  0.37500  0.75000
E43   E   0.50000  0.62500  0.25000
E44   E   0.50000  0.62500  0.75000
E45   E   0.50000  0.75000  0.37500
E46   E   0.50000  0.75000  0.87500
E47   E   0.50000  0.87500  0.25000
E48   E   0.50000  0.87500  0.75000
E49   E   0.62500  0.00000  0.75000
E50   E   0.62500  0.25000  0.00000
E51   E   0.62500  0.25000  0.50000
E52   E   0.62500  0.50000  0.25000
E53   E   0.62500  0.75000  0.00000
E54   E   0.62500  0.75000  0.50000
E55   E   0.75000  0.00000  0.12500
E56   E   0.75000  0.00000  0.37500
E57   E   0.75000  0.00000  0.62500
E58   E   0.75000  0.00000  0.87500
E59   E   0.75000  0.12500  0.00000
E60   E   0.75000  0.37500  0.50000
E61   E   0.75000  0.50000  0.12500
E62   E   0.75000  0.50000  0.37500
E63   E   0.75000  0.50000  0.62500
E64   E   0.75000  0.50000  0.87500
E65   E   0.75000  0.62500  0.00000
E66   E   0.75000  0.87500  0.50000
E67   E   0.87500  0.00000  0.25000
E68   E   0.87500  0.25000  0.00000
E69   E   0.87500  0.25000  0.50000
E70   E   0.87500  0.50000  0.75000
E71   E   0.87500  0.75000  0.00000
E72   E   0.87500  0.75000  0.50000
loop_
