data_vbc_Fddd:2  hall_number: 336, V_con: 5
_audit_creation_date              2025-03-06
_audit_creation_method            'MOFbuilder_1.0'
_symmetry_space_group_name_H-M    'P1'
_symmetry_Int_Tables_number       1
_symmetry_cell_setting            triclinic
loop_
_symmetry_equiv_pos_as_xyz
  x,y,z
_cell_length_a                    23.5425
_cell_length_b                    53.9638
_cell_length_c                    28.7432
_cell_angle_alpha                 90.0
_cell_angle_beta                  90.0
_cell_angle_gamma                 90.0
loop_
_atom_site_label
_atom_site_type_symbol
_atom_site_fract_x
_atom_site_fract_y
_atom_site_fract_z
V1    V   0.08134  0.03432  0.83381
V2    V   0.08134  0.21568  0.41619
V3    V   0.08134  0.53432  0.33381
V4    V   0.08134  0.71568  0.91619
V5    V   0.16866  0.03432  0.41619
V6    V   0.16866  0.21568  0.83381
V7    V   0.16866  0.53432  0.91619
V8    V   0.16866  0.71568  0.33381
V9    V   0.33134  0.28432  0.16619
V10   V   0.33134  0.46568  0.58381
V11   V   0.33134  0.78432  0.66619
V12   V   0.33134  0.96568  0.08381
V13   V   0.41866  0.28432  0.58381
V14   V   0.41866  0.46568  0.16619
V15   V   0.41866  0.78432  0.08381
V16   V   0.41866  0.96568  0.66619
V17   V   0.58134  0.03432  0.33381
V18   V   0.58134  0.21568  0.91619
V19   V   0.58134  0.53432  0.83381
V20   V   0.58134  0.71568  0.41619
V21   V   0.66866  0.03432  0.91619
V22   V   0.66866  0.21568  0.33381
V23   V   0.66866  0.53432  0.41619
V24   V   0.66866  0.71568  0.83381
V25   V   0.83134  0.28432  0.66619
V26   V   0.83134  0.46568  0.08381
V27   V   0.83134  0.78432  0.16619
V28   V   0.83134  0.96568  0.58381
V29   V   0.91866  0.28432  0.08381
V30   V   0.91866  0.46568  0.66619
V31   V   0.91866  0.78432  0.58381
V32   V   0.91866  0.96568  0.16619
E1    E   0.00000  0.00000  0.50000
E2    E   0.00000  0.25000  0.75000
E3    E   0.00000  0.50000  0.00000
E4    E   0.00000  0.75000  0.25000
E5    E   0.04366  0.00000  0.29119
E6    E   0.04366  0.25000  0.95881
E7    E   0.04366  0.50000  0.79119
E8    E   0.04366  0.75000  0.45881
E9    E   0.12500  0.12500  0.41619
E10   E   0.12500  0.12500  0.83381
E11   E   0.12500  0.28432  0.12500
E12   E   0.12500  0.46568  0.62500
E13   E   0.12500  0.62500  0.33381
E14   E   0.12500  0.62500  0.91619
E15   E   0.12500  0.78432  0.62500
E16   E   0.12500  0.96568  0.12500
E17   E   0.20634  0.00000  0.95881
E18   E   0.20634  0.25000  0.29119
E19   E   0.20634  0.50000  0.45881
E20   E   0.20634  0.75000  0.79119
E21   E   0.25000  0.00000  0.75000
E22   E   0.25000  0.25000  0.50000
E23   E   0.25000  0.50000  0.25000
E24   E   0.25000  0.75000  0.00000
E25   E   0.29366  0.00000  0.54119
E26   E   0.29366  0.25000  0.70881
E27   E   0.29366  0.50000  0.04119
E28   E   0.29366  0.75000  0.20881
E29   E   0.37500  0.03432  0.37500
E30   E   0.37500  0.21568  0.87500
E31   E   0.37500  0.37500  0.16619
E32   E   0.37500  0.37500  0.58381
E33   E   0.37500  0.53432  0.87500
E34   E   0.37500  0.71568  0.37500
E35   E   0.37500  0.87500  0.08381
E36   E   0.37500  0.87500  0.66619
E37   E   0.45634  0.00000  0.20881
E38   E   0.45634  0.25000  0.04119
E39   E   0.45634  0.50000  0.70881
E40   E   0.45634  0.75000  0.54119
E41   E   0.50000  0.00000  0.00000
E42   E   0.50000  0.25000  0.25000
E43   E   0.50000  0.50000  0.50000
E44   E   0.50000  0.75000  0.75000
E45   E   0.54366  0.00000  0.79119
E46   E   0.54366  0.25000  0.45881
E47   E   0.54366  0.50000  0.29119
E48   E   0.54366  0.75000  0.95881
E49   E   0.62500  0.12500  0.33381
E50   E   0.62500  0.12500  0.91619
E51   E   0.62500  0.28432  0.62500
E52   E   0.62500  0.46568  0.12500
E53   E   0.62500  0.62500  0.41619
E54   E   0.62500  0.62500  0.83381
E55   E   0.62500  0.78432  0.12500
E56   E   0.62500  0.96568  0.62500
E57   E   0.70634  0.00000  0.45881
E58   E   0.70634  0.25000  0.79119
E59   E   0.70634  0.50000  0.95881
E60   E   0.70634  0.75000  0.29119
E61   E   0.75000  0.00000  0.25000
E62   E   0.75000  0.25000  0.00000
E63   E   0.75000  0.50000  0.75000
E64   E   0.75000  0.75000  0.50000
E65   E   0.79366  0.00000  0.04119
E66   E   0.79366  0.25000  0.20881
E67   E   0.79366  0.50000  0.54119
E68   E   0.79366  0.75000  0.70881
E69   E   0.87500  0.03432  0.87500
E70   E   0.87500  0.21568  0.37500
E71   E   0.87500  0.37500  0.08381
E72   E   0.87500  0.37500  0.66619
E73   E   0.87500  0.53432  0.37500
E74   E   0.87500  0.71568  0.87500
E75   E   0.87500  0.87500  0.16619
E76   E   0.87500  0.87500  0.58381
E77   E   0.95634  0.00000  0.70881
E78   E   0.95634  0.25000  0.54119
E79   E   0.95634  0.50000  0.20881
E80   E   0.95634  0.75000  0.04119
loop_
