data_vcv_Pbcn  hall_number: 284, V_con: 8
_audit_creation_date              2025-03-06
_audit_creation_method            'MOFbuilder_1.0'
_symmetry_space_group_name_H-M    'P1'
_symmetry_Int_Tables_number       1
_symmetry_cell_setting            triclinic
loop_
_symmetry_equiv_pos_as_xyz
  x,y,z
_cell_length_a                    24.3248
_cell_length_b                    18.1955
_cell_length_c                    16.7087
_cell_angle_alpha                 90.0
_cell_angle_beta                  90.0
_cell_angle_gamma                 90.0
loop_
_atom_site_label
_atom_site_type_symbol
_atom_site_fract_x
_atom_site_fract_y
_atom_site_fract_z
V1    V   0.16467  0.34898  0.57091
V2    V   0.16467  0.65102  0.07091
V3    V   0.33533  0.15102  0.07091
V4    V   0.33533  0.84898  0.57091
V5    V   0.66467  0.15102  0.42909
V6    V   0.66467  0.84898  0.92909
V7    V   0.83533  0.34898  0.92909
V8    V   0.83533  0.65102  0.42909
E1    E   0.00000  0.34898  0.75000
E2    E   0.00000  0.50000  0.00000
E3    E   0.00000  0.50000  0.50000
E4    E   0.00000  0.65102  0.25000
E5    E   0.16467  0.50000  0.32091
E6    E   0.16467  0.50000  0.82091
E7    E   0.25000  0.09898  0.57091
E8    E   0.25000  0.25000  0.32091
E9    E   0.25000  0.25000  0.82091
E10   E   0.25000  0.40102  0.07091
E11   E   0.25000  0.59898  0.57091
E12   E   0.25000  0.75000  0.32091
E13   E   0.25000  0.75000  0.82091
E14   E   0.25000  0.90102  0.07091
E15   E   0.33533  0.00000  0.32091
E16   E   0.33533  0.00000  0.82091
E17   E   0.50000  0.00000  0.00000
E18   E   0.50000  0.00000  0.50000
E19   E   0.50000  0.15102  0.25000
E20   E   0.50000  0.84898  0.75000
E21   E   0.66467  0.00000  0.17909
E22   E   0.66467  0.00000  0.67909
E23   E   0.75000  0.09898  0.92909
E24   E   0.75000  0.25000  0.17909
E25   E   0.75000  0.25000  0.67909
E26   E   0.75000  0.40102  0.42909
E27   E   0.75000  0.59898  0.92909
E28   E   0.75000  0.75000  0.17909
E29   E   0.75000  0.75000  0.67909
E30   E   0.75000  0.90102  0.42909
E31   E   0.83533  0.50000  0.17909
E32   E   0.83533  0.50000  0.67909
loop_
