data_vda_Fddd:2  hall_number: 336, V_con: 6
_audit_creation_date              2025-03-06
_audit_creation_method            'MOFbuilder_1.0'
_symmetry_space_group_name_H-M    'P1'
_symmetry_Int_Tables_number       1
_symmetry_cell_setting            triclinic
loop_
_symmetry_equiv_pos_as_xyz
  x,y,z
_cell_length_a                    30.555
_cell_length_b                    25.8066
_cell_length_c                    38.7254
_cell_angle_alpha                 90.0
_cell_angle_beta                  90.0
_cell_angle_gamma                 90.0
loop_
_atom_site_label
_atom_site_type_symbol
_atom_site_fract_x
_atom_site_fract_y
_atom_site_fract_z
V1    V   0.09608  0.31570  0.49792
V2    V   0.09608  0.43430  0.25208
V3    V   0.09608  0.81570  0.99792
V4    V   0.09608  0.93430  0.75208
V5    V   0.15392  0.31570  0.75208
V6    V   0.15392  0.43430  0.99792
V7    V   0.15392  0.81570  0.25208
V8    V   0.15392  0.93430  0.49792
V9    V   0.34608  0.06570  0.00208
V10   V   0.34608  0.18430  0.24792
V11   V   0.34608  0.56570  0.50208
V12   V   0.34608  0.68430  0.74792
V13   V   0.40392  0.06570  0.74792
V14   V   0.40392  0.18430  0.50208
V15   V   0.40392  0.56570  0.24792
V16   V   0.40392  0.68430  0.00208
V17   V   0.59608  0.31570  0.99792
V18   V   0.59608  0.43430  0.75208
V19   V   0.59608  0.81570  0.49792
V20   V   0.59608  0.93430  0.25208
V21   V   0.65392  0.31570  0.25208
V22   V   0.65392  0.43430  0.49792
V23   V   0.65392  0.81570  0.75208
V24   V   0.65392  0.93430  0.99792
V25   V   0.84608  0.06570  0.50208
V26   V   0.84608  0.18430  0.74792
V27   V   0.84608  0.56570  0.00208
V28   V   0.84608  0.68430  0.24792
V29   V   0.90392  0.06570  0.24792
V30   V   0.90392  0.18430  0.00208
V31   V   0.90392  0.56570  0.74792
V32   V   0.90392  0.68430  0.50208
E1    E   0.00000  0.00000  0.50000
E2    E   0.00000  0.25000  0.75000
E3    E   0.00000  0.50000  0.00000
E4    E   0.00000  0.75000  0.25000
E5    E   0.02892  0.30930  0.00000
E6    E   0.02892  0.44070  0.75000
E7    E   0.02892  0.80930  0.50000
E8    E   0.02892  0.94070  0.25000
E9    E   0.09608  0.37500  0.37500
E10   E   0.09608  0.87500  0.87500
E11   E   0.12500  0.12500  0.49792
E12   E   0.12500  0.12500  0.75208
E13   E   0.12500  0.31570  0.62500
E14   E   0.12500  0.43430  0.12500
E15   E   0.12500  0.62500  0.25208
E16   E   0.12500  0.62500  0.99792
E17   E   0.12500  0.81570  0.12500
E18   E   0.12500  0.93430  0.62500
E19   E   0.15392  0.37500  0.87500
E20   E   0.15392  0.87500  0.37500
E21   E   0.22108  0.30930  0.25000
E22   E   0.22108  0.44070  0.50000
E23   E   0.22108  0.80930  0.75000
E24   E   0.22108  0.94070  0.00000
E25   E   0.25000  0.00000  0.75000
E26   E   0.25000  0.25000  0.50000
E27   E   0.25000  0.50000  0.25000
E28   E   0.25000  0.75000  0.00000
E29   E   0.27892  0.05930  0.50000
E30   E   0.27892  0.19070  0.75000
E31   E   0.27892  0.55930  0.00000
E32   E   0.27892  0.69070  0.25000
E33   E   0.34608  0.12500  0.12500
E34   E   0.34608  0.62500  0.62500
E35   E   0.37500  0.06570  0.87500
E36   E   0.37500  0.18430  0.37500
E37   E   0.37500  0.37500  0.24792
E38   E   0.37500  0.37500  0.50208
E39   E   0.37500  0.56570  0.37500
E40   E   0.37500  0.68430  0.87500
E41   E   0.37500  0.87500  0.00208
E42   E   0.37500  0.87500  0.74792
E43   E   0.40392  0.12500  0.62500
E44   E   0.40392  0.62500  0.12500
E45   E   0.47108  0.05930  0.25000
E46   E   0.47108  0.19070  0.00000
E47   E   0.47108  0.55930  0.75000
E48   E   0.47108  0.69070  0.50000
E49   E   0.50000  0.00000  0.00000
E50   E   0.50000  0.25000  0.25000
E51   E   0.50000  0.50000  0.50000
E52   E   0.50000  0.75000  0.75000
E53   E   0.52892  0.30930  0.50000
E54   E   0.52892  0.44070  0.25000
E55   E   0.52892  0.80930  0.00000
E56   E   0.52892  0.94070  0.75000
E57   E   0.59608  0.37500  0.87500
E58   E   0.59608  0.87500  0.37500
E59   E   0.62500  0.12500  0.25208
E60   E   0.62500  0.12500  0.99792
E61   E   0.62500  0.31570  0.12500
E62   E   0.62500  0.43430  0.62500
E63   E   0.62500  0.62500  0.49792
E64   E   0.62500  0.62500  0.75208
E65   E   0.62500  0.81570  0.62500
E66   E   0.62500  0.93430  0.12500
E67   E   0.65392  0.37500  0.37500
E68   E   0.65392  0.87500  0.87500
E69   E   0.72108  0.30930  0.75000
E70   E   0.72108  0.44070  0.00000
E71   E   0.72108  0.80930  0.25000
E72   E   0.72108  0.94070  0.50000
E73   E   0.75000  0.00000  0.25000
E74   E   0.75000  0.25000  0.00000
E75   E   0.75000  0.50000  0.75000
E76   E   0.75000  0.75000  0.50000
E77   E   0.77892  0.05930  0.00000
E78   E   0.77892  0.19070  0.25000
E79   E   0.77892  0.55930  0.50000
E80   E   0.77892  0.69070  0.75000
E81   E   0.84608  0.12500  0.62500
E82   E   0.84608  0.62500  0.12500
E83   E   0.87500  0.06570  0.37500
E84   E   0.87500  0.18430  0.87500
E85   E   0.87500  0.37500  0.00208
E86   E   0.87500  0.37500  0.74792
E87   E   0.87500  0.56570  0.87500
E88   E   0.87500  0.68430  0.37500
E89   E   0.87500  0.87500  0.24792
E90   E   0.87500  0.87500  0.50208
E91   E   0.90392  0.12500  0.12500
E92   E   0.90392  0.62500  0.62500
E93   E   0.97108  0.05930  0.75000
E94   E   0.97108  0.19070  0.50000
E95   E   0.97108  0.55930  0.25000
E96   E   0.97108  0.69070  0.00000
loop_
