data_vdb_Fddd:2  hall_number: 336, V_con: 5
_audit_creation_date              2025-03-06
_audit_creation_method            'MOFbuilder_1.0'
_symmetry_space_group_name_H-M    'P1'
_symmetry_Int_Tables_number       1
_symmetry_cell_setting            triclinic
loop_
_symmetry_equiv_pos_as_xyz
  x,y,z
_cell_length_a                    18.457
_cell_length_b                    33.6712
_cell_length_c                    57.2203
_cell_angle_alpha                 90.0
_cell_angle_beta                  90.0
_cell_angle_gamma                 90.0
loop_
_atom_site_label
_atom_site_type_symbol
_atom_site_fract_x
_atom_site_fract_y
_atom_site_fract_z
V1    V   0.06656  0.27000  0.43679
V2    V   0.06656  0.48000  0.31321
V3    V   0.06656  0.77000  0.93679
V4    V   0.06656  0.98000  0.81321
V5    V   0.18344  0.27000  0.81321
V6    V   0.18344  0.48000  0.93679
V7    V   0.18344  0.77000  0.31321
V8    V   0.18344  0.98000  0.43679
V9    V   0.31656  0.02000  0.06321
V10   V   0.31656  0.23000  0.18679
V11   V   0.31656  0.52000  0.56321
V12   V   0.31656  0.73000  0.68679
V13   V   0.43344  0.02000  0.68679
V14   V   0.43344  0.23000  0.56321
V15   V   0.43344  0.52000  0.18679
V16   V   0.43344  0.73000  0.06321
V17   V   0.56656  0.27000  0.93679
V18   V   0.56656  0.48000  0.81321
V19   V   0.56656  0.77000  0.43679
V20   V   0.56656  0.98000  0.31321
V21   V   0.68344  0.27000  0.31321
V22   V   0.68344  0.48000  0.43679
V23   V   0.68344  0.77000  0.81321
V24   V   0.68344  0.98000  0.93679
V25   V   0.81656  0.02000  0.56321
V26   V   0.81656  0.23000  0.68679
V27   V   0.81656  0.52000  0.06321
V28   V   0.81656  0.73000  0.18679
V29   V   0.93344  0.02000  0.18679
V30   V   0.93344  0.23000  0.06321
V31   V   0.93344  0.52000  0.68679
V32   V   0.93344  0.73000  0.56321
E1    E   0.00000  0.00000  0.50000
E2    E   0.00000  0.25000  0.75000
E3    E   0.00000  0.50000  0.00000
E4    E   0.00000  0.75000  0.25000
E5    E   0.06656  0.37500  0.37500
E6    E   0.06656  0.87500  0.87500
E7    E   0.12500  0.02000  0.12500
E8    E   0.12500  0.12500  0.06321
E9    E   0.12500  0.12500  0.18679
E10   E   0.12500  0.12500  0.43679
E11   E   0.12500  0.12500  0.81321
E12   E   0.12500  0.23000  0.12500
E13   E   0.12500  0.52000  0.62500
E14   E   0.12500  0.62500  0.31321
E15   E   0.12500  0.62500  0.56321
E16   E   0.12500  0.62500  0.68679
E17   E   0.12500  0.62500  0.93679
E18   E   0.12500  0.73000  0.62500
E19   E   0.18344  0.37500  0.87500
E20   E   0.18344  0.87500  0.37500
E21   E   0.25000  0.00000  0.75000
E22   E   0.25000  0.25000  0.50000
E23   E   0.25000  0.50000  0.25000
E24   E   0.25000  0.75000  0.00000
E25   E   0.31656  0.12500  0.12500
E26   E   0.31656  0.62500  0.62500
E27   E   0.37500  0.27000  0.87500
E28   E   0.37500  0.37500  0.18679
E29   E   0.37500  0.37500  0.56321
E30   E   0.37500  0.37500  0.81321
E31   E   0.37500  0.37500  0.93679
E32   E   0.37500  0.48000  0.87500
E33   E   0.37500  0.77000  0.37500
E34   E   0.37500  0.87500  0.06321
E35   E   0.37500  0.87500  0.31321
E36   E   0.37500  0.87500  0.43679
E37   E   0.37500  0.87500  0.68679
E38   E   0.37500  0.98000  0.37500
E39   E   0.43344  0.12500  0.62500
E40   E   0.43344  0.62500  0.12500
E41   E   0.50000  0.00000  0.00000
E42   E   0.50000  0.25000  0.25000
E43   E   0.50000  0.50000  0.50000
E44   E   0.50000  0.75000  0.75000
E45   E   0.56656  0.37500  0.87500
E46   E   0.56656  0.87500  0.37500
E47   E   0.62500  0.02000  0.62500
E48   E   0.62500  0.12500  0.31321
E49   E   0.62500  0.12500  0.56321
E50   E   0.62500  0.12500  0.68679
E51   E   0.62500  0.12500  0.93679
E52   E   0.62500  0.23000  0.62500
E53   E   0.62500  0.52000  0.12500
E54   E   0.62500  0.62500  0.06321
E55   E   0.62500  0.62500  0.18679
E56   E   0.62500  0.62500  0.43679
E57   E   0.62500  0.62500  0.81321
E58   E   0.62500  0.73000  0.12500
E59   E   0.68344  0.37500  0.37500
E60   E   0.68344  0.87500  0.87500
E61   E   0.75000  0.00000  0.25000
E62   E   0.75000  0.25000  0.00000
E63   E   0.75000  0.50000  0.75000
E64   E   0.75000  0.75000  0.50000
E65   E   0.81656  0.12500  0.62500
E66   E   0.81656  0.62500  0.12500
E67   E   0.87500  0.27000  0.37500
E68   E   0.87500  0.37500  0.06321
E69   E   0.87500  0.37500  0.31321
E70   E   0.87500  0.37500  0.43679
E71   E   0.87500  0.37500  0.68679
E72   E   0.87500  0.48000  0.37500
E73   E   0.87500  0.77000  0.87500
E74   E   0.87500  0.87500  0.18679
E75   E   0.87500  0.87500  0.56321
E76   E   0.87500  0.87500  0.81321
E77   E   0.87500  0.87500  0.93679
E78   E   0.87500  0.98000  0.87500
E79   E   0.93344  0.12500  0.12500
E80   E   0.93344  0.62500  0.62500
loop_
