data_vmb_C12/c1  hall_number: 107, V_con: 5
_audit_creation_date              2025-03-06
_audit_creation_method            'MOFbuilder_1.0'
_symmetry_space_group_name_H-M    'P1'
_symmetry_Int_Tables_number       1
_symmetry_cell_setting            triclinic
loop_
_symmetry_equiv_pos_as_xyz
  x,y,z
_cell_length_a                    20.6747
_cell_length_b                    27.6175
_cell_length_c                    18.1169
_cell_angle_alpha                 90.0
_cell_angle_beta                  114.8411
_cell_angle_gamma                 90.0
loop_
_atom_site_label
_atom_site_type_symbol
_atom_site_fract_x
_atom_site_fract_y
_atom_site_fract_z
V1    V   0.23814  0.07669  0.92681
V2    V   0.23814  0.42331  0.07319
V3    V   0.26186  0.07669  0.42681
V4    V   0.26186  0.42331  0.57319
V5    V   0.73814  0.57669  0.42681
V6    V   0.73814  0.92331  0.57319
V7    V   0.76186  0.57669  0.92681
V8    V   0.76186  0.92331  0.07319
E1    E   0.00000  0.00000  0.00000
E2    E   0.00000  0.07669  0.25000
E3    E   0.00000  0.42331  0.75000
E4    E   0.00000  0.50000  0.00000
E5    E   0.00000  0.57669  0.25000
E6    E   0.00000  0.92331  0.75000
E7    E   0.23814  0.00000  0.67681
E8    E   0.23814  0.50000  0.32319
E9    E   0.25000  0.25000  0.00000
E10   E   0.25000  0.25000  0.50000
E11   E   0.26186  0.00000  0.17681
E12   E   0.26186  0.50000  0.82319
E13   E   0.50000  0.00000  0.50000
E14   E   0.50000  0.07669  0.75000
E15   E   0.50000  0.42331  0.25000
E16   E   0.50000  0.50000  0.50000
E17   E   0.50000  0.57669  0.75000
E18   E   0.50000  0.92331  0.25000
E19   E   0.73814  0.00000  0.82319
E20   E   0.73814  0.50000  0.17681
E21   E   0.75000  0.75000  0.00000
E22   E   0.75000  0.75000  0.50000
E23   E   0.76186  0.00000  0.32319
E24   E   0.76186  0.50000  0.67681
loop_
