data_vms_I12/a1  hall_number: 107, V_con: 8
_audit_creation_date              2025-03-06
_audit_creation_method            'MOFbuilder_1.0'
_symmetry_space_group_name_H-M    'P1'
_symmetry_Int_Tables_number       1
_symmetry_cell_setting            triclinic
loop_
_symmetry_equiv_pos_as_xyz
  x,y,z
_cell_length_a                    19.4621
_cell_length_b                    19.1253
_cell_length_c                    18.562
_cell_angle_alpha                 90.0
_cell_angle_beta                  100.67
_cell_angle_gamma                 90.0
loop_
_atom_site_label
_atom_site_type_symbol
_atom_site_fract_x
_atom_site_fract_y
_atom_site_fract_z
V1    V   0.07647  0.06022  0.73516
V2    V   0.07647  0.43978  0.26484
V3    V   0.42353  0.06022  0.23516
V4    V   0.42353  0.43978  0.76484
V5    V   0.57647  0.56022  0.23516
V6    V   0.57647  0.93978  0.76484
V7    V   0.92353  0.56022  0.73516
V8    V   0.92353  0.93978  0.26484
E1    E   0.00000  0.00000  0.00000
E2    E   0.00000  0.00000  0.50000
E3    E   0.00000  0.18978  0.25000
E4    E   0.00000  0.31022  0.75000
E5    E   0.00000  0.50000  0.00000
E6    E   0.00000  0.50000  0.50000
E7    E   0.00000  0.68978  0.25000
E8    E   0.00000  0.81022  0.75000
E9    E   0.17353  0.00000  0.26484
E10   E   0.17353  0.50000  0.73516
E11   E   0.25000  0.06022  0.00000
E12   E   0.25000  0.06022  0.50000
E13   E   0.25000  0.25000  0.25000
E14   E   0.25000  0.25000  0.75000
E15   E   0.25000  0.43978  0.00000
E16   E   0.25000  0.43978  0.50000
E17   E   0.32647  0.00000  0.76484
E18   E   0.32647  0.50000  0.23516
E19   E   0.50000  0.00000  0.00000
E20   E   0.50000  0.00000  0.50000
E21   E   0.50000  0.18978  0.75000
E22   E   0.50000  0.31022  0.25000
E23   E   0.50000  0.50000  0.00000
E24   E   0.50000  0.50000  0.50000
E25   E   0.50000  0.68978  0.75000
E26   E   0.50000  0.81022  0.25000
E27   E   0.67353  0.00000  0.23516
E28   E   0.67353  0.50000  0.76484
E29   E   0.75000  0.56022  0.00000
E30   E   0.75000  0.56022  0.50000
E31   E   0.75000  0.75000  0.25000
E32   E   0.75000  0.75000  0.75000
E33   E   0.75000  0.93978  0.00000
E34   E   0.75000  0.93978  0.50000
E35   E   0.82647  0.00000  0.73516
E36   E   0.82647  0.50000  0.26484
loop_
