data_vmt_C12/c1  hall_number: 107, V_con: 8
_audit_creation_date              2025-03-06
_audit_creation_method            'MOFbuilder_1.0'
_symmetry_space_group_name_H-M    'P1'
_symmetry_Int_Tables_number       1
_symmetry_cell_setting            triclinic
loop_
_symmetry_equiv_pos_as_xyz
  x,y,z
_cell_length_a                    19.2429
_cell_length_b                    19.2426
_cell_length_c                    19.336
_cell_angle_alpha                 90.0
_cell_angle_beta                  105.3259
_cell_angle_gamma                 90.0
loop_
_atom_site_label
_atom_site_type_symbol
_atom_site_fract_x
_atom_site_fract_y
_atom_site_fract_z
V1    V   0.23059  0.06640  0.17692
V2    V   0.23059  0.43360  0.82308
V3    V   0.26941  0.06640  0.67692
V4    V   0.26941  0.43360  0.32308
V5    V   0.73059  0.56640  0.67692
V6    V   0.73059  0.93360  0.32308
V7    V   0.76941  0.56640  0.17692
V8    V   0.76941  0.93360  0.82308
E1    E   0.00000  0.00000  0.00000
E2    E   0.00000  0.06640  0.25000
E3    E   0.00000  0.06640  0.75000
E4    E   0.00000  0.43360  0.25000
E5    E   0.00000  0.43360  0.75000
E6    E   0.00000  0.50000  0.00000
E7    E   0.00000  0.56640  0.25000
E8    E   0.00000  0.56640  0.75000
E9    E   0.00000  0.93360  0.25000
E10   E   0.00000  0.93360  0.75000
E11   E   0.23059  0.00000  0.92692
E12   E   0.23059  0.50000  0.07308
E13   E   0.25000  0.25000  0.00000
E14   E   0.25000  0.25000  0.50000
E15   E   0.25000  0.68360  0.25000
E16   E   0.25000  0.68360  0.75000
E17   E   0.25000  0.81640  0.25000
E18   E   0.25000  0.81640  0.75000
E19   E   0.26941  0.00000  0.42692
E20   E   0.26941  0.50000  0.57308
E21   E   0.50000  0.00000  0.50000
E22   E   0.50000  0.06640  0.25000
E23   E   0.50000  0.06640  0.75000
E24   E   0.50000  0.43360  0.25000
E25   E   0.50000  0.43360  0.75000
E26   E   0.50000  0.50000  0.50000
E27   E   0.50000  0.56640  0.25000
E28   E   0.50000  0.56640  0.75000
E29   E   0.50000  0.93360  0.25000
E30   E   0.50000  0.93360  0.75000
E31   E   0.73059  0.00000  0.57308
E32   E   0.73059  0.50000  0.42692
E33   E   0.75000  0.18360  0.25000
E34   E   0.75000  0.18360  0.75000
E35   E   0.75000  0.31640  0.25000
E36   E   0.75000  0.31640  0.75000
E37   E   0.75000  0.75000  0.00000
E38   E   0.75000  0.75000  0.50000
E39   E   0.76941  0.00000  0.07308
E40   E   0.76941  0.50000  0.92692
loop_
