data_vnh_C12/c1  hall_number: 107, V_con: 7
_audit_creation_date              2025-03-06
_audit_creation_method            'MOFbuilder_1.0'
_symmetry_space_group_name_H-M    'P1'
_symmetry_Int_Tables_number       1
_symmetry_cell_setting            triclinic
loop_
_symmetry_equiv_pos_as_xyz
  x,y,z
_cell_length_a                    27.0022
_cell_length_b                    16.7035
_cell_length_c                    19.2097
_cell_angle_alpha                 90.0
_cell_angle_beta                  99.777
_cell_angle_gamma                 90.0
loop_
_atom_site_label
_atom_site_type_symbol
_atom_site_fract_x
_atom_site_fract_y
_atom_site_fract_z
V1    V   0.16086  0.07995  0.15407
V2    V   0.16086  0.42005  0.84593
V3    V   0.33914  0.07995  0.65407
V4    V   0.33914  0.42005  0.34593
V5    V   0.66086  0.57995  0.65407
V6    V   0.66086  0.92005  0.34593
V7    V   0.83914  0.57995  0.15407
V8    V   0.83914  0.92005  0.84593
E1    E   0.00000  0.00000  0.00000
E2    E   0.00000  0.07995  0.25000
E3    E   0.00000  0.42005  0.75000
E4    E   0.00000  0.50000  0.00000
E5    E   0.00000  0.57995  0.25000
E6    E   0.00000  0.92005  0.75000
E7    E   0.16086  0.00000  0.40407
E8    E   0.16086  0.50000  0.59593
E9    E   0.25000  0.17005  0.25000
E10   E   0.25000  0.17005  0.75000
E11   E   0.25000  0.25000  0.00000
E12   E   0.25000  0.25000  0.50000
E13   E   0.25000  0.32995  0.25000
E14   E   0.25000  0.32995  0.75000
E15   E   0.33914  0.00000  0.90407
E16   E   0.33914  0.50000  0.09593
E17   E   0.50000  0.00000  0.50000
E18   E   0.50000  0.07995  0.75000
E19   E   0.50000  0.42005  0.25000
E20   E   0.50000  0.50000  0.50000
E21   E   0.50000  0.57995  0.75000
E22   E   0.50000  0.92005  0.25000
E23   E   0.66086  0.00000  0.09593
E24   E   0.66086  0.50000  0.90407
E25   E   0.75000  0.67005  0.25000
E26   E   0.75000  0.67005  0.75000
E27   E   0.75000  0.75000  0.00000
E28   E   0.75000  0.75000  0.50000
E29   E   0.75000  0.82995  0.25000
E30   E   0.75000  0.82995  0.75000
E31   E   0.83914  0.00000  0.59593
E32   E   0.83914  0.50000  0.40407
loop_
