data_wfp_I41/a:2  hall_number: 365, V_con: 8
_audit_creation_date              2025-03-06
_audit_creation_method            'MOFbuilder_1.0'
_symmetry_space_group_name_H-M    'P1'
_symmetry_Int_Tables_number       1
_symmetry_cell_setting            triclinic
loop_
_symmetry_equiv_pos_as_xyz
  x,y,z
_cell_length_a                    18.5418
_cell_length_b                    18.5418
_cell_length_c                    39.0203
_cell_angle_alpha                 90.0
_cell_angle_beta                  90.0
_cell_angle_gamma                 90.0
loop_
_atom_site_label
_atom_site_type_symbol
_atom_site_fract_x
_atom_site_fract_y
_atom_site_fract_z
V1    V   0.19068  0.05932  0.83611
V2    V   0.19068  0.44068  0.41389
V3    V   0.19068  0.55932  0.16389
V4    V   0.19068  0.94068  0.58611
V5    V   0.30932  0.05932  0.08611
V6    V   0.30932  0.44068  0.66389
V7    V   0.30932  0.55932  0.91389
V8    V   0.30932  0.94068  0.33611
V9    V   0.69068  0.05932  0.66389
V10   V   0.69068  0.44068  0.08611
V11   V   0.69068  0.55932  0.33611
V12   V   0.69068  0.94068  0.91389
V13   V   0.80932  0.05932  0.41389
V14   V   0.80932  0.44068  0.83611
V15   V   0.80932  0.55932  0.58611
V16   V   0.80932  0.94068  0.16389
E1    E   0.00000  0.00000  0.50000
E2    E   0.00000  0.25000  0.41389
E3    E   0.00000  0.25000  0.83611
E4    E   0.00000  0.50000  0.50000
E5    E   0.00000  0.75000  0.16389
E6    E   0.00000  0.75000  0.58611
E7    E   0.05932  0.00000  0.37500
E8    E   0.05932  0.50000  0.62500
E9    E   0.05932  0.00000  0.12500
E10   E   0.05932  0.50000  0.87500
E11   E   0.19068  0.00000  0.71111
E12   E   0.19068  0.50000  0.28889
E13   E   0.25000  0.05932  0.96111
E14   E   0.25000  0.19068  0.62500
E15   E   0.25000  0.19068  0.37500
E16   E   0.25000  0.25000  0.75000
E17   E   0.25000  0.30932  0.12500
E18   E   0.25000  0.30932  0.87500
E19   E   0.25000  0.44068  0.53889
E20   E   0.25000  0.55932  0.03889
E21   E   0.25000  0.69068  0.37500
E22   E   0.25000  0.69068  0.62500
E23   E   0.25000  0.75000  0.25000
E24   E   0.25000  0.80932  0.12500
E25   E   0.25000  0.80932  0.87500
E26   E   0.25000  0.94068  0.46111
E27   E   0.30932  0.00000  0.21111
E28   E   0.30932  0.50000  0.78889
E29   E   0.44068  0.00000  0.87500
E30   E   0.44068  0.50000  0.12500
E31   E   0.44068  0.00000  0.62500
E32   E   0.44068  0.50000  0.37500
E33   E   0.50000  0.00000  0.00000
E34   E   0.50000  0.25000  0.08611
E35   E   0.50000  0.25000  0.66389
E36   E   0.50000  0.50000  0.00000
E37   E   0.50000  0.75000  0.33611
E38   E   0.50000  0.75000  0.91389
E39   E   0.55932  0.00000  0.12500
E40   E   0.55932  0.00000  0.37500
E41   E   0.55932  0.50000  0.62500
E42   E   0.55932  0.50000  0.87500
E43   E   0.69068  0.00000  0.78889
E44   E   0.69068  0.50000  0.21111
E45   E   0.75000  0.05932  0.53889
E46   E   0.75000  0.19068  0.87500
E47   E   0.75000  0.19068  0.12500
E48   E   0.75000  0.25000  0.75000
E49   E   0.75000  0.30932  0.37500
E50   E   0.75000  0.30932  0.62500
E51   E   0.75000  0.44068  0.96111
E52   E   0.75000  0.55932  0.46111
E53   E   0.75000  0.69068  0.12500
E54   E   0.75000  0.69068  0.87500
E55   E   0.75000  0.75000  0.25000
E56   E   0.75000  0.80932  0.37500
E57   E   0.75000  0.80932  0.62500
E58   E   0.75000  0.94068  0.03889
E59   E   0.80932  0.00000  0.28889
E60   E   0.80932  0.50000  0.71111
E61   E   0.94068  0.00000  0.62500
E62   E   0.94068  0.00000  0.87500
E63   E   0.94068  0.50000  0.12500
E64   E   0.94068  0.50000  0.37500
loop_
