data_wgi_I41/acd:2  hall_number: 429, V_con: 5
_audit_creation_date              2025-03-06
_audit_creation_method            'MOFbuilder_1.0'
_symmetry_space_group_name_H-M    'P1'
_symmetry_Int_Tables_number       1
_symmetry_cell_setting            triclinic
loop_
_symmetry_equiv_pos_as_xyz
  x,y,z
_cell_length_a                    43.1184
_cell_length_b                    43.1184
_cell_length_c                    17.9453
_cell_angle_alpha                 90.0
_cell_angle_beta                  90.0
_cell_angle_gamma                 90.0
loop_
_atom_site_label
_atom_site_type_symbol
_atom_site_fract_x
_atom_site_fract_y
_atom_site_fract_z
V1    V   0.07396  0.10363  0.87500
V2    V   0.07396  0.39637  0.37500
V3    V   0.07396  0.60363  0.12500
V4    V   0.07396  0.89637  0.62500
V5    V   0.14637  0.17604  0.37500
V6    V   0.14637  0.32396  0.87500
V7    V   0.14637  0.67604  0.62500
V8    V   0.14637  0.82396  0.12500
V9    V   0.35363  0.17604  0.62500
V10   V   0.35363  0.32396  0.12500
V11   V   0.35363  0.67604  0.37500
V12   V   0.35363  0.82396  0.87500
V13   V   0.42604  0.10363  0.12500
V14   V   0.42604  0.39637  0.62500
V15   V   0.42604  0.60363  0.87500
V16   V   0.42604  0.89637  0.37500
V17   V   0.57396  0.10363  0.62500
V18   V   0.57396  0.39637  0.12500
V19   V   0.57396  0.60363  0.37500
V20   V   0.57396  0.89637  0.87500
V21   V   0.64637  0.17604  0.12500
V22   V   0.64637  0.32396  0.62500
V23   V   0.64637  0.67604  0.87500
V24   V   0.64637  0.82396  0.37500
V25   V   0.85363  0.17604  0.87500
V26   V   0.85363  0.32396  0.37500
V27   V   0.85363  0.67604  0.12500
V28   V   0.85363  0.82396  0.62500
V29   V   0.92604  0.10363  0.37500
V30   V   0.92604  0.39637  0.87500
V31   V   0.92604  0.60363  0.62500
V32   V   0.92604  0.89637  0.12500
E1    E   0.03620  0.13984  0.37500
E2    E   0.03620  0.36016  0.87500
E3    E   0.03620  0.63984  0.62500
E4    E   0.03620  0.86016  0.12500
E5    E   0.07396  0.00000  0.75000
E6    E   0.07396  0.50000  0.25000
E7    E   0.11016  0.13984  0.12500
E8    E   0.11016  0.13984  0.62500
E9    E   0.11016  0.21380  0.87500
E10   E   0.11016  0.28620  0.37500
E11   E   0.11016  0.36016  0.12500
E12   E   0.11016  0.36016  0.62500
E13   E   0.11016  0.63984  0.37500
E14   E   0.11016  0.63984  0.87500
E15   E   0.11016  0.71380  0.12500
E16   E   0.11016  0.78620  0.62500
E17   E   0.11016  0.86016  0.37500
E18   E   0.11016  0.86016  0.87500
E19   E   0.11016  0.13984  0.12500
E20   E   0.11016  0.13984  0.62500
E21   E   0.11016  0.36016  0.12500
E22   E   0.11016  0.36016  0.62500
E23   E   0.11016  0.63984  0.37500
E24   E   0.11016  0.63984  0.87500
E25   E   0.11016  0.86016  0.37500
E26   E   0.11016  0.86016  0.87500
E27   E   0.25000  0.17604  0.50000
E28   E   0.25000  0.32396  0.00000
E29   E   0.25000  0.67604  0.50000
E30   E   0.25000  0.82396  0.00000
E31   E   0.38984  0.13984  0.37500
E32   E   0.38984  0.13984  0.87500
E33   E   0.38984  0.36016  0.37500
E34   E   0.38984  0.36016  0.87500
E35   E   0.38984  0.63984  0.12500
E36   E   0.38984  0.63984  0.62500
E37   E   0.38984  0.86016  0.12500
E38   E   0.38984  0.86016  0.62500
E39   E   0.38984  0.13984  0.37500
E40   E   0.38984  0.13984  0.87500
E41   E   0.38984  0.21380  0.12500
E42   E   0.38984  0.28620  0.62500
E43   E   0.38984  0.36016  0.37500
E44   E   0.38984  0.36016  0.87500
E45   E   0.38984  0.63984  0.12500
E46   E   0.38984  0.63984  0.62500
E47   E   0.38984  0.71380  0.87500
E48   E   0.38984  0.78620  0.37500
E49   E   0.38984  0.86016  0.12500
E50   E   0.38984  0.86016  0.62500
E51   E   0.42604  0.00000  0.25000
E52   E   0.42604  0.50000  0.75000
E53   E   0.46380  0.13984  0.62500
E54   E   0.46380  0.36016  0.12500
E55   E   0.46380  0.63984  0.37500
E56   E   0.46380  0.86016  0.87500
E57   E   0.53620  0.13984  0.12500
E58   E   0.53620  0.36016  0.62500
E59   E   0.53620  0.63984  0.87500
E60   E   0.53620  0.86016  0.37500
E61   E   0.57396  0.00000  0.75000
E62   E   0.57396  0.50000  0.25000
E63   E   0.61016  0.13984  0.37500
E64   E   0.61016  0.13984  0.87500
E65   E   0.61016  0.13984  0.37500
E66   E   0.61016  0.13984  0.87500
E67   E   0.61016  0.21380  0.62500
E68   E   0.61016  0.28620  0.12500
E69   E   0.61016  0.36016  0.37500
E70   E   0.61016  0.36016  0.87500
E71   E   0.61016  0.36016  0.37500
E72   E   0.61016  0.36016  0.87500
E73   E   0.61016  0.63984  0.12500
E74   E   0.61016  0.63984  0.62500
E75   E   0.61016  0.71380  0.37500
E76   E   0.61016  0.78620  0.87500
E77   E   0.61016  0.86016  0.12500
E78   E   0.61016  0.86016  0.62500
E79   E   0.75000  0.17604  0.00000
E80   E   0.75000  0.32396  0.50000
E81   E   0.75000  0.67604  0.00000
E82   E   0.75000  0.82396  0.50000
E83   E   0.88984  0.13984  0.12500
E84   E   0.88984  0.13984  0.62500
E85   E   0.88984  0.13984  0.12500
E86   E   0.88984  0.13984  0.62500
E87   E   0.88984  0.21380  0.37500
E88   E   0.88984  0.28620  0.87500
E89   E   0.88984  0.36016  0.12500
E90   E   0.88984  0.36016  0.62500
E91   E   0.88984  0.36016  0.12500
E92   E   0.88984  0.36016  0.62500
E93   E   0.88984  0.63984  0.37500
E94   E   0.88984  0.63984  0.87500
E95   E   0.88984  0.71380  0.62500
E96   E   0.88984  0.78620  0.12500
E97   E   0.88984  0.86016  0.37500
E98   E   0.88984  0.86016  0.87500
E99   E   0.92604  0.00000  0.25000
E100  E   0.92604  0.50000  0.75000
E101  E   0.96380  0.13984  0.87500
E102  E   0.96380  0.36016  0.37500
E103  E   0.96380  0.63984  0.12500
E104  E   0.96380  0.86016  0.62500
loop_
