data_wgp_I41/acd:2  hall_number: 429, V_con: 5
_audit_creation_date              2025-03-06
_audit_creation_method            'MOFbuilder_1.0'
_symmetry_space_group_name_H-M    'P1'
_symmetry_Int_Tables_number       1
_symmetry_cell_setting            triclinic
loop_
_symmetry_equiv_pos_as_xyz
  x,y,z
_cell_length_a                    19.9
_cell_length_b                    19.9
_cell_length_c                    75.3385
_cell_angle_alpha                 90.0
_cell_angle_beta                  90.0
_cell_angle_gamma                 90.0
loop_
_atom_site_label
_atom_site_type_symbol
_atom_site_fract_x
_atom_site_fract_y
_atom_site_fract_z
V1    V   0.11203  0.02510  0.31603
V2    V   0.11203  0.47490  0.81603
V3    V   0.11203  0.52510  0.68397
V4    V   0.11203  0.97490  0.18397
V5    V   0.22490  0.13797  0.93397
V6    V   0.22490  0.36203  0.43397
V7    V   0.22490  0.63797  0.06603
V8    V   0.22490  0.86203  0.56603
V9    V   0.27510  0.13797  0.06603
V10   V   0.27510  0.36203  0.56603
V11   V   0.27510  0.63797  0.93397
V12   V   0.27510  0.86203  0.43397
V13   V   0.38797  0.02510  0.68397
V14   V   0.38797  0.47490  0.18397
V15   V   0.38797  0.52510  0.31603
V16   V   0.38797  0.97490  0.81603
V17   V   0.61203  0.02510  0.18397
V18   V   0.61203  0.47490  0.68397
V19   V   0.61203  0.52510  0.81603
V20   V   0.61203  0.97490  0.31603
V21   V   0.72490  0.13797  0.56603
V22   V   0.72490  0.36203  0.06603
V23   V   0.72490  0.63797  0.43397
V24   V   0.72490  0.86203  0.93397
V25   V   0.77510  0.13797  0.43397
V26   V   0.77510  0.36203  0.93397
V27   V   0.77510  0.63797  0.56603
V28   V   0.77510  0.86203  0.06603
V29   V   0.88797  0.02510  0.81603
V30   V   0.88797  0.47490  0.31603
V31   V   0.88797  0.52510  0.18397
V32   V   0.88797  0.97490  0.68397
E1    E   0.00000  0.25000  0.31603
E2    E   0.00000  0.25000  0.43397
E3    E   0.00000  0.25000  0.81603
E4    E   0.00000  0.25000  0.93397
E5    E   0.00000  0.75000  0.06603
E6    E   0.00000  0.75000  0.18397
E7    E   0.00000  0.75000  0.56603
E8    E   0.00000  0.75000  0.68397
E9    E   0.11203  0.00000  0.25000
E10   E   0.11203  0.50000  0.75000
E11   E   0.13797  0.00000  0.68397
E12   E   0.13797  0.00000  0.81603
E13   E   0.13797  0.50000  0.18397
E14   E   0.13797  0.50000  0.31603
E15   E   0.19357  0.05643  0.12500
E16   E   0.19357  0.05643  0.12500
E17   E   0.19357  0.44357  0.62500
E18   E   0.19357  0.55643  0.87500
E19   E   0.19357  0.94357  0.37500
E20   E   0.25000  0.11203  0.43397
E21   E   0.25000  0.11203  0.56603
E22   E   0.25000  0.13797  0.00000
E23   E   0.25000  0.36203  0.50000
E24   E   0.25000  0.38797  0.06603
E25   E   0.25000  0.38797  0.93397
E26   E   0.25000  0.61203  0.43397
E27   E   0.25000  0.61203  0.56603
E28   E   0.25000  0.63797  0.00000
E29   E   0.25000  0.86203  0.50000
E30   E   0.25000  0.88797  0.06603
E31   E   0.25000  0.88797  0.93397
E32   E   0.30643  0.05643  0.87500
E33   E   0.30643  0.05643  0.87500
E34   E   0.30643  0.44357  0.37500
E35   E   0.30643  0.55643  0.12500
E36   E   0.30643  0.94357  0.62500
E37   E   0.36203  0.00000  0.18397
E38   E   0.36203  0.00000  0.31603
E39   E   0.36203  0.50000  0.68397
E40   E   0.36203  0.50000  0.81603
E41   E   0.38797  0.00000  0.75000
E42   E   0.38797  0.50000  0.25000
E43   E   0.50000  0.25000  0.06603
E44   E   0.50000  0.25000  0.18397
E45   E   0.50000  0.25000  0.56603
E46   E   0.50000  0.25000  0.68397
E47   E   0.50000  0.75000  0.31603
E48   E   0.50000  0.75000  0.43397
E49   E   0.50000  0.75000  0.81603
E50   E   0.50000  0.75000  0.93397
E51   E   0.61203  0.00000  0.25000
E52   E   0.61203  0.50000  0.75000
E53   E   0.63797  0.00000  0.68397
E54   E   0.63797  0.00000  0.81603
E55   E   0.63797  0.50000  0.18397
E56   E   0.63797  0.50000  0.31603
E57   E   0.69357  0.05643  0.37500
E58   E   0.69357  0.05643  0.37500
E59   E   0.69357  0.44357  0.87500
E60   E   0.69357  0.55643  0.62500
E61   E   0.69357  0.94357  0.12500
E62   E   0.75000  0.11203  0.06603
E63   E   0.75000  0.11203  0.93397
E64   E   0.75000  0.13797  0.50000
E65   E   0.75000  0.36203  0.00000
E66   E   0.75000  0.38797  0.43397
E67   E   0.75000  0.38797  0.56603
E68   E   0.75000  0.61203  0.06603
E69   E   0.75000  0.61203  0.93397
E70   E   0.75000  0.63797  0.50000
E71   E   0.75000  0.86203  0.00000
E72   E   0.75000  0.88797  0.43397
E73   E   0.75000  0.88797  0.56603
E74   E   0.80643  0.05643  0.62500
E75   E   0.80643  0.05643  0.62500
E76   E   0.80643  0.44357  0.12500
E77   E   0.80643  0.55643  0.37500
E78   E   0.80643  0.94357  0.87500
E79   E   0.86203  0.00000  0.18397
E80   E   0.86203  0.00000  0.31603
E81   E   0.86203  0.50000  0.68397
E82   E   0.86203  0.50000  0.81603
E83   E   0.88797  0.00000  0.75000
E84   E   0.88797  0.50000  0.25000
loop_
