data_wgs_I41/acd:2  hall_number: 429, V_con: 5
_audit_creation_date              2025-03-06
_audit_creation_method            'MOFbuilder_1.0'
_symmetry_space_group_name_H-M    'P1'
_symmetry_Int_Tables_number       1
_symmetry_cell_setting            triclinic
loop_
_symmetry_equiv_pos_as_xyz
  x,y,z
_cell_length_a                    19.588
_cell_length_b                    19.588
_cell_length_c                    77.2413
_cell_angle_alpha                 90.0
_cell_angle_beta                  90.0
_cell_angle_gamma                 90.0
loop_
_atom_site_label
_atom_site_type_symbol
_atom_site_fract_x
_atom_site_fract_y
_atom_site_fract_z
V1    V   0.16053  0.05154  0.56063
V2    V   0.16053  0.44846  0.06063
V3    V   0.16053  0.55154  0.43937
V4    V   0.16053  0.94846  0.93937
V5    V   0.19846  0.08947  0.68937
V6    V   0.19846  0.41053  0.18937
V7    V   0.19846  0.58947  0.31063
V8    V   0.19846  0.91053  0.81063
V9    V   0.30154  0.08947  0.31063
V10   V   0.30154  0.41053  0.81063
V11   V   0.30154  0.58947  0.68937
V12   V   0.30154  0.91053  0.18937
V13   V   0.33947  0.05154  0.43937
V14   V   0.33947  0.44846  0.93937
V15   V   0.33947  0.55154  0.56063
V16   V   0.33947  0.94846  0.06063
V17   V   0.66053  0.05154  0.93937
V18   V   0.66053  0.44846  0.43937
V19   V   0.66053  0.55154  0.06063
V20   V   0.66053  0.94846  0.56063
V21   V   0.69846  0.08947  0.81063
V22   V   0.69846  0.41053  0.31063
V23   V   0.69846  0.58947  0.18937
V24   V   0.69846  0.91053  0.68937
V25   V   0.80154  0.08947  0.18937
V26   V   0.80154  0.41053  0.68937
V27   V   0.80154  0.58947  0.81063
V28   V   0.80154  0.91053  0.31063
V29   V   0.83947  0.05154  0.06063
V30   V   0.83947  0.44846  0.56063
V31   V   0.83947  0.55154  0.93937
V32   V   0.83947  0.94846  0.43937
E1    E   0.00000  0.25000  0.06063
E2    E   0.00000  0.25000  0.18937
E3    E   0.00000  0.25000  0.56063
E4    E   0.00000  0.25000  0.68937
E5    E   0.00000  0.75000  0.31063
E6    E   0.00000  0.75000  0.43937
E7    E   0.00000  0.75000  0.81063
E8    E   0.00000  0.75000  0.93937
E9    E   0.08947  0.00000  0.06063
E10   E   0.08947  0.00000  0.43937
E11   E   0.08947  0.50000  0.56063
E12   E   0.08947  0.50000  0.93937
E13   E   0.17950  0.07050  0.62500
E14   E   0.17950  0.07050  0.62500
E15   E   0.17950  0.42950  0.12500
E16   E   0.17950  0.57050  0.37500
E17   E   0.17950  0.92950  0.87500
E18   E   0.19846  0.00000  0.75000
E19   E   0.19846  0.50000  0.25000
E20   E   0.25000  0.05154  0.50000
E21   E   0.25000  0.16053  0.18937
E22   E   0.25000  0.16053  0.81063
E23   E   0.25000  0.33947  0.31063
E24   E   0.25000  0.33947  0.68937
E25   E   0.25000  0.44846  0.00000
E26   E   0.25000  0.55154  0.50000
E27   E   0.25000  0.66053  0.18937
E28   E   0.25000  0.66053  0.81063
E29   E   0.25000  0.83947  0.31063
E30   E   0.25000  0.83947  0.68937
E31   E   0.25000  0.94846  0.00000
E32   E   0.30154  0.00000  0.25000
E33   E   0.30154  0.50000  0.75000
E34   E   0.32050  0.07050  0.37500
E35   E   0.32050  0.07050  0.37500
E36   E   0.32050  0.42950  0.87500
E37   E   0.32050  0.57050  0.62500
E38   E   0.32050  0.92950  0.12500
E39   E   0.41053  0.00000  0.56063
E40   E   0.41053  0.00000  0.93937
E41   E   0.41053  0.50000  0.06063
E42   E   0.41053  0.50000  0.43937
E43   E   0.50000  0.25000  0.31063
E44   E   0.50000  0.25000  0.43937
E45   E   0.50000  0.25000  0.81063
E46   E   0.50000  0.25000  0.93937
E47   E   0.50000  0.75000  0.06063
E48   E   0.50000  0.75000  0.18937
E49   E   0.50000  0.75000  0.56063
E50   E   0.50000  0.75000  0.68937
E51   E   0.58947  0.00000  0.06063
E52   E   0.58947  0.00000  0.43937
E53   E   0.58947  0.50000  0.56063
E54   E   0.58947  0.50000  0.93937
E55   E   0.67950  0.07050  0.87500
E56   E   0.67950  0.07050  0.87500
E57   E   0.67950  0.42950  0.37500
E58   E   0.67950  0.57050  0.12500
E59   E   0.67950  0.92950  0.62500
E60   E   0.69846  0.00000  0.75000
E61   E   0.69846  0.50000  0.25000
E62   E   0.75000  0.05154  0.00000
E63   E   0.75000  0.16053  0.31063
E64   E   0.75000  0.16053  0.68937
E65   E   0.75000  0.33947  0.18937
E66   E   0.75000  0.33947  0.81063
E67   E   0.75000  0.44846  0.50000
E68   E   0.75000  0.55154  0.00000
E69   E   0.75000  0.66053  0.31063
E70   E   0.75000  0.66053  0.68937
E71   E   0.75000  0.83947  0.18937
E72   E   0.75000  0.83947  0.81063
E73   E   0.75000  0.94846  0.50000
E74   E   0.80154  0.00000  0.25000
E75   E   0.80154  0.50000  0.75000
E76   E   0.82050  0.07050  0.12500
E77   E   0.82050  0.07050  0.12500
E78   E   0.82050  0.42950  0.62500
E79   E   0.82050  0.57050  0.87500
E80   E   0.82050  0.92950  0.37500
E81   E   0.91053  0.00000  0.56063
E82   E   0.91053  0.00000  0.93937
E83   E   0.91053  0.50000  0.06063
E84   E   0.91053  0.50000  0.43937
loop_
