data_whf_P4/nnc:2  hall_number: 405, V_con: 6
_audit_creation_date              2025-03-06
_audit_creation_method            'MOFbuilder_1.0'
_symmetry_space_group_name_H-M    'P1'
_symmetry_Int_Tables_number       1
_symmetry_cell_setting            triclinic
loop_
_symmetry_equiv_pos_as_xyz
  x,y,z
_cell_length_a                    31.5701
_cell_length_b                    31.5701
_cell_length_c                    19.4184
_cell_angle_alpha                 90.0
_cell_angle_beta                  90.0
_cell_angle_gamma                 90.0
loop_
_atom_site_label
_atom_site_type_symbol
_atom_site_fract_x
_atom_site_fract_y
_atom_site_fract_z
V1    V   0.07572  0.62935  0.08320
V2    V   0.07572  0.87065  0.41680
V3    V   0.12935  0.57572  0.58320
V4    V   0.12935  0.92428  0.91680
V5    V   0.37065  0.57572  0.91680
V6    V   0.37065  0.92428  0.58320
V7    V   0.42428  0.62935  0.41680
V8    V   0.42428  0.87065  0.08320
V9    V   0.57572  0.12935  0.91680
V10   V   0.57572  0.37065  0.58320
V11   V   0.62935  0.07572  0.41680
V12   V   0.62935  0.42428  0.08320
V13   V   0.87065  0.07572  0.08320
V14   V   0.87065  0.42428  0.41680
V15   V   0.92428  0.12935  0.58320
V16   V   0.92428  0.37065  0.91680
E1    E   0.00000  0.00000  0.00000
E2    E   0.00000  0.00000  0.50000
E3    E   0.00000  0.50000  0.00000
E4    E   0.00000  0.50000  0.50000
E5    E   0.07572  0.75000  0.25000
E6    E   0.10254  0.60254  0.33320
E7    E   0.10254  0.72319  0.50000
E8    E   0.10254  0.77681  0.00000
E9    E   0.10254  0.89746  0.16680
E10   E   0.10254  0.60254  0.83320
E11   E   0.10254  0.89746  0.66680
E12   E   0.22319  0.60254  0.00000
E13   E   0.22319  0.89746  0.50000
E14   E   0.25000  0.57572  0.75000
E15   E   0.25000  0.92428  0.75000
E16   E   0.27681  0.60254  0.50000
E17   E   0.27681  0.89746  0.00000
E18   E   0.39746  0.60254  0.66680
E19   E   0.39746  0.89746  0.83320
E20   E   0.39746  0.60254  0.16680
E21   E   0.39746  0.72319  0.00000
E22   E   0.39746  0.77681  0.50000
E23   E   0.39746  0.89746  0.33320
E24   E   0.42428  0.75000  0.25000
E25   E   0.50000  0.00000  0.00000
E26   E   0.50000  0.00000  0.50000
E27   E   0.50000  0.50000  0.00000
E28   E   0.50000  0.50000  0.50000
E29   E   0.57572  0.25000  0.75000
E30   E   0.60254  0.10254  0.16680
E31   E   0.60254  0.10254  0.66680
E32   E   0.60254  0.22319  0.50000
E33   E   0.60254  0.27681  0.00000
E34   E   0.60254  0.39746  0.83320
E35   E   0.60254  0.39746  0.33320
E36   E   0.72319  0.10254  0.00000
E37   E   0.72319  0.39746  0.50000
E38   E   0.75000  0.07572  0.25000
E39   E   0.75000  0.42428  0.25000
E40   E   0.77681  0.10254  0.50000
E41   E   0.77681  0.39746  0.00000
E42   E   0.89746  0.10254  0.33320
E43   E   0.89746  0.10254  0.83320
E44   E   0.89746  0.22319  0.00000
E45   E   0.89746  0.27681  0.50000
E46   E   0.89746  0.39746  0.66680
E47   E   0.89746  0.39746  0.16680
E48   E   0.92428  0.25000  0.75000
loop_
