data_whi_P4/ncc:2  hall_number: 411, V_con: 6
_audit_creation_date              2025-03-06
_audit_creation_method            'MOFbuilder_1.0'
_symmetry_space_group_name_H-M    'P1'
_symmetry_Int_Tables_number       1
_symmetry_cell_setting            triclinic
loop_
_symmetry_equiv_pos_as_xyz
  x,y,z
_cell_length_a                    33.7184
_cell_length_b                    33.7184
_cell_length_c                    14.5324
_cell_angle_alpha                 90.0
_cell_angle_beta                  90.0
_cell_angle_gamma                 90.0
loop_
_atom_site_label
_atom_site_type_symbol
_atom_site_fract_x
_atom_site_fract_y
_atom_site_fract_z
V1    V   0.00404  0.14812  0.98675
V2    V   0.00404  0.35188  0.48675
V3    V   0.14812  0.00404  0.48675
V4    V   0.14812  0.49596  0.98675
V5    V   0.35188  0.00404  0.98675
V6    V   0.35188  0.49596  0.48675
V7    V   0.49596  0.14812  0.48675
V8    V   0.49596  0.35188  0.98675
V9    V   0.50404  0.64812  0.01325
V10   V   0.50404  0.85188  0.51325
V11   V   0.64812  0.50404  0.51325
V12   V   0.64812  0.99596  0.01325
V13   V   0.85188  0.50404  0.01325
V14   V   0.85188  0.99596  0.51325
V15   V   0.99596  0.64812  0.51325
V16   V   0.99596  0.85188  0.01325
E1    E   0.00000  0.00000  0.00000
E2    E   0.00000  0.00000  0.50000
E3    E   0.00000  0.50000  0.00000
E4    E   0.00000  0.50000  0.50000
E5    E   0.00404  0.25000  0.23675
E6    E   0.00404  0.25000  0.73675
E7    E   0.07204  0.57204  0.75000
E8    E   0.07204  0.92796  0.25000
E9    E   0.07608  0.07608  0.23675
E10   E   0.07608  0.07608  0.73675
E11   E   0.07608  0.42392  0.23675
E12   E   0.07608  0.42392  0.73675
E13   E   0.25000  0.00404  0.23675
E14   E   0.25000  0.00404  0.73675
E15   E   0.25000  0.49596  0.23675
E16   E   0.25000  0.49596  0.73675
E17   E   0.42392  0.07608  0.23675
E18   E   0.42392  0.07608  0.73675
E19   E   0.42392  0.42392  0.23675
E20   E   0.42392  0.42392  0.73675
E21   E   0.42796  0.57204  0.25000
E22   E   0.42796  0.92796  0.75000
E23   E   0.49596  0.25000  0.23675
E24   E   0.49596  0.25000  0.73675
E25   E   0.50000  0.00000  0.00000
E26   E   0.50000  0.00000  0.50000
E27   E   0.50000  0.50000  0.00000
E28   E   0.50000  0.50000  0.50000
E29   E   0.50404  0.75000  0.26325
E30   E   0.50404  0.75000  0.76325
E31   E   0.57204  0.07204  0.25000
E32   E   0.57204  0.42796  0.75000
E33   E   0.57608  0.57608  0.26325
E34   E   0.57608  0.57608  0.76325
E35   E   0.57608  0.92392  0.26325
E36   E   0.57608  0.92392  0.76325
E37   E   0.75000  0.50404  0.26325
E38   E   0.75000  0.50404  0.76325
E39   E   0.75000  0.99596  0.26325
E40   E   0.75000  0.99596  0.76325
E41   E   0.92392  0.57608  0.26325
E42   E   0.92392  0.57608  0.76325
E43   E   0.92392  0.92392  0.26325
E44   E   0.92392  0.92392  0.76325
E45   E   0.92796  0.07204  0.75000
E46   E   0.92796  0.42796  0.25000
E47   E   0.99596  0.75000  0.26325
E48   E   0.99596  0.75000  0.76325
loop_
