data_whw_I41/amd:2  hall_number: 427, V_con: 6
_audit_creation_date              2025-03-06
_audit_creation_method            'MOFbuilder_1.0'
_symmetry_space_group_name_H-M    'P1'
_symmetry_Int_Tables_number       1
_symmetry_cell_setting            triclinic
loop_
_symmetry_equiv_pos_as_xyz
  x,y,z
_cell_length_a                    38.708
_cell_length_b                    38.708
_cell_length_c                    14.1423
_cell_angle_alpha                 90.0
_cell_angle_beta                  90.0
_cell_angle_gamma                 90.0
loop_
_atom_site_label
_atom_site_type_symbol
_atom_site_fract_x
_atom_site_fract_y
_atom_site_fract_z
V1    V   0.00000  0.12083  0.12500
V2    V   0.00000  0.37917  0.12500
V3    V   0.00000  0.62083  0.87500
V4    V   0.00000  0.87917  0.87500
V5    V   0.12917  0.25000  0.62500
V6    V   0.12917  0.75000  0.37500
V7    V   0.37083  0.25000  0.87500
V8    V   0.37083  0.75000  0.12500
V9    V   0.50000  0.12083  0.37500
V10   V   0.50000  0.37917  0.37500
V11   V   0.50000  0.62083  0.62500
V12   V   0.50000  0.87917  0.62500
V13   V   0.62917  0.25000  0.87500
V14   V   0.62917  0.75000  0.12500
V15   V   0.87083  0.25000  0.62500
V16   V   0.87083  0.75000  0.37500
E1    E   0.00000  0.00000  0.00000
E2    E   0.00000  0.25000  0.12500
E3    E   0.00000  0.25000  0.62500
E4    E   0.00000  0.50000  0.00000
E5    E   0.00000  0.75000  0.37500
E6    E   0.00000  0.75000  0.87500
E7    E   0.06459  0.18541  0.37500
E8    E   0.06459  0.18541  0.87500
E9    E   0.06459  0.31459  0.37500
E10   E   0.06459  0.31459  0.87500
E11   E   0.06459  0.68541  0.12500
E12   E   0.06459  0.68541  0.62500
E13   E   0.06459  0.81459  0.12500
E14   E   0.06459  0.81459  0.62500
E15   E   0.06459  0.18541  0.37500
E16   E   0.06459  0.18541  0.87500
E17   E   0.06459  0.31459  0.37500
E18   E   0.06459  0.31459  0.87500
E19   E   0.06459  0.68541  0.12500
E20   E   0.06459  0.68541  0.62500
E21   E   0.06459  0.81459  0.12500
E22   E   0.06459  0.81459  0.62500
E23   E   0.25000  0.25000  0.75000
E24   E   0.25000  0.75000  0.25000
E25   E   0.43541  0.18541  0.12500
E26   E   0.43541  0.18541  0.62500
E27   E   0.43541  0.31459  0.12500
E28   E   0.43541  0.31459  0.62500
E29   E   0.43541  0.68541  0.37500
E30   E   0.43541  0.68541  0.87500
E31   E   0.43541  0.81459  0.37500
E32   E   0.43541  0.81459  0.87500
E33   E   0.43541  0.18541  0.12500
E34   E   0.43541  0.18541  0.62500
E35   E   0.43541  0.31459  0.12500
E36   E   0.43541  0.31459  0.62500
E37   E   0.43541  0.68541  0.37500
E38   E   0.43541  0.68541  0.87500
E39   E   0.43541  0.81459  0.37500
E40   E   0.43541  0.81459  0.87500
E41   E   0.50000  0.00000  0.50000
E42   E   0.50000  0.25000  0.37500
E43   E   0.50000  0.25000  0.87500
E44   E   0.50000  0.50000  0.50000
E45   E   0.50000  0.75000  0.12500
E46   E   0.50000  0.75000  0.62500
E47   E   0.56459  0.18541  0.12500
E48   E   0.56459  0.18541  0.62500
E49   E   0.56459  0.18541  0.12500
E50   E   0.56459  0.18541  0.62500
E51   E   0.56459  0.31459  0.12500
E52   E   0.56459  0.31459  0.62500
E53   E   0.56459  0.31459  0.12500
E54   E   0.56459  0.31459  0.62500
E55   E   0.56459  0.68541  0.37500
E56   E   0.56459  0.68541  0.87500
E57   E   0.56459  0.81459  0.37500
E58   E   0.56459  0.81459  0.87500
E59   E   0.75000  0.25000  0.75000
E60   E   0.75000  0.75000  0.25000
E61   E   0.93541  0.18541  0.37500
E62   E   0.93541  0.18541  0.87500
E63   E   0.93541  0.18541  0.37500
E64   E   0.93541  0.18541  0.87500
E65   E   0.93541  0.31459  0.37500
E66   E   0.93541  0.31459  0.87500
E67   E   0.93541  0.31459  0.37500
E68   E   0.93541  0.31459  0.87500
E69   E   0.93541  0.68541  0.12500
E70   E   0.93541  0.68541  0.62500
E71   E   0.93541  0.81459  0.12500
E72   E   0.93541  0.81459  0.62500
loop_
