data_wkf_P6122  hall_number: 472, V_con: 6
_audit_creation_date              2025-03-06
_audit_creation_method            'MOFbuilder_1.0'
_symmetry_space_group_name_H-M    'P1'
_symmetry_Int_Tables_number       1
_symmetry_cell_setting            triclinic
loop_
_symmetry_equiv_pos_as_xyz
  x,y,z
_cell_length_a                    17.4986
_cell_length_b                    17.4986
_cell_length_c                    48.4204
_cell_angle_alpha                 90.0
_cell_angle_beta                  90.0
_cell_angle_gamma                 120.0
loop_
_atom_site_label
_atom_site_type_symbol
_atom_site_fract_x
_atom_site_fract_y
_atom_site_fract_z
V1    V   0.11912  0.38089  0.96667
V2    V   0.11912  0.73823  0.19999
V3    V   0.26177  0.38089  0.53333
V4    V   0.26177  0.88088  0.63334
V5    V   0.38089  0.11912  0.36666
V6    V   0.38089  0.26177  0.80001
V7    V   0.61911  0.73823  0.30001
V8    V   0.61911  0.88088  0.86666
V9    V   0.73823  0.11912  0.13334
V10   V   0.73823  0.61911  0.03333
V11   V   0.88088  0.26177  0.69999
V12   V   0.88088  0.61911  0.46667
E1    E   0.07133  0.32133  0.61666
E2    E   0.07133  0.50000  0.50000
E3    E   0.07133  0.57133  0.66666
E4    E   0.07133  0.75000  0.55000
E5    E   0.13088  0.26176  0.75000
E6    E   0.13088  0.26176  0.75000
E7    E   0.13088  0.86912  0.41666
E8    E   0.13088  0.86912  0.41667
E9    E   0.25000  0.32133  0.88334
E10   E   0.25000  0.92867  0.28333
E11   E   0.26176  0.13088  0.58333
E12   E   0.26176  0.13088  0.58334
E13   E   0.26176  0.63088  0.58333
E14   E   0.26176  0.63088  0.58334
E15   E   0.32133  0.07133  0.71667
E16   E   0.32133  0.25000  0.45000
E17   E   0.36912  0.63088  0.91666
E18   E   0.36912  0.63088  0.91667
E19   E   0.36912  0.73824  0.25000
E20   E   0.36912  0.73824  0.25000
E21   E   0.42867  0.50000  1.00000
E22   E   0.42867  0.92867  0.16667
E23   E   0.50000  0.07133  0.83333
E24   E   0.50000  0.42867  0.33334
E25   E   0.50000  0.57133  0.83334
E26   E   0.50000  0.92867  0.33333
E27   E   0.57133  0.07133  0.66667
E28   E   0.57133  0.50000  0.50000
E29   E   0.63088  0.26176  0.75000
E30   E   0.63088  0.26176  0.75000
E31   E   0.63088  0.36912  0.41666
E32   E   0.63088  0.36912  0.41667
E33   E   0.67867  0.75000  0.95000
E34   E   0.67867  0.92867  0.21667
E35   E   0.73824  0.36912  0.08333
E36   E   0.73824  0.36912  0.08334
E37   E   0.73824  0.86912  0.08333
E38   E   0.73824  0.86912  0.08334
E39   E   0.75000  0.07133  0.78333
E40   E   0.75000  0.67867  0.38334
E41   E   0.86912  0.13088  0.91666
E42   E   0.86912  0.13088  0.91667
E43   E   0.86912  0.73824  0.25000
E44   E   0.86912  0.73824  0.25000
E45   E   0.92867  0.25000  0.05000
E46   E   0.92867  0.42867  0.16666
E47   E   0.92867  0.50000  0.00000
E48   E   0.92867  0.67867  0.11666
loop_
