data_wlg_R-3c:H  hall_number: 167, V_con: 5
_audit_creation_date              2025-03-06
_audit_creation_method            'MOFbuilder_1.0'
_symmetry_space_group_name_H-M    'P1'
_symmetry_Int_Tables_number       1
_symmetry_cell_setting            triclinic
loop_
_symmetry_equiv_pos_as_xyz
  x,y,z
_cell_length_a                    30.8613
_cell_length_b                    30.8613
_cell_length_c                    48.9246
_cell_angle_alpha                 90.0
_cell_angle_beta                  90.0
_cell_angle_gamma                 120.0
loop_
_atom_site_label
_atom_site_type_symbol
_atom_site_fract_x
_atom_site_fract_y
_atom_site_fract_z
V1    V   0.00223  0.18818  0.14781
V2    V   0.00223  0.31182  0.64781
V3    V   0.50223  0.68818  0.35219
V4    V   0.50223  0.81182  0.85219
E1    E   0.00000  0.18707  0.25000
E2    E   0.00000  0.31293  0.75000
E3    E   0.07481  0.16667  0.58333
E4    E   0.07481  0.33333  0.08333
E5    E   0.09409  0.09298  0.14781
E6    E   0.09409  0.40702  0.64781
E7    E   0.33333  0.66667  0.33333
E8    E   0.33333  0.83333  0.83333
E9    E   0.50000  0.68707  0.25000
E10   E   0.50000  0.81293  0.75000
E11   E   0.57481  0.66667  0.91667
E12   E   0.57481  0.83333  0.41667
E13   E   0.59409  0.59298  0.35219
E14   E   0.59409  0.90702  0.85219
E15   E   0.83333  0.16667  0.16667
E16   E   0.83333  0.33333  0.66667
loop_
