data_wli_P3221  hall_number: 443, V_con: 5
_audit_creation_date              2025-03-06
_audit_creation_method            'MOFbuilder_1.0'
_symmetry_space_group_name_H-M    'P1'
_symmetry_Int_Tables_number       1
_symmetry_cell_setting            triclinic
loop_
_symmetry_equiv_pos_as_xyz
  x,y,z
_cell_length_a                    22.625
_cell_length_b                    22.625
_cell_length_c                    15.0152
_cell_angle_alpha                 90.0
_cell_angle_beta                  90.0
_cell_angle_gamma                 120.0
loop_
_atom_site_label
_atom_site_type_symbol
_atom_site_fract_x
_atom_site_fract_y
_atom_site_fract_z
V1    V   0.16857  0.41563  0.08334
V2    V   0.24706  0.83143  0.41667
V3    V   0.41563  0.16857  0.91666
V4    V   0.58437  0.75294  0.75001
V5    V   0.75294  0.58437  0.24999
V6    V   0.83143  0.24706  0.58333
E1    E   0.00000  0.33134  0.33333
E2    E   0.00000  0.33134  0.33334
E3    E   0.00000  0.33134  0.83333
E4    E   0.00000  0.33134  0.83334
E5    E   0.00000  0.70790  0.33333
E6    E   0.20781  0.62353  0.25000
E7    E   0.29210  0.29210  0.00000
E8    E   0.33134  0.00000  0.16666
E9    E   0.33134  0.00000  0.16667
E10   E   0.33134  0.00000  0.66666
E11   E   0.33134  0.00000  0.66667
E12   E   0.37647  0.58428  0.91667
E13   E   0.41572  0.79219  0.58333
E14   E   0.58428  0.37647  0.08333
E15   E   0.62353  0.20781  0.75000
E16   E   0.66866  0.66866  0.00000
E17   E   0.66866  0.66866  0.50000
E18   E   0.66866  0.66866  0.50000
E19   E   0.66866  0.66866  1.00000
E20   E   0.70790  0.00000  0.66667
E21   E   0.79219  0.41572  0.41667
loop_
