data_wmm_P-3c1  hall_number: 457, V_con: 6
_audit_creation_date              2025-03-06
_audit_creation_method            'MOFbuilder_1.0'
_symmetry_space_group_name_H-M    'P1'
_symmetry_Int_Tables_number       1
_symmetry_cell_setting            triclinic
loop_
_symmetry_equiv_pos_as_xyz
  x,y,z
_cell_length_a                    32.8435
_cell_length_b                    32.8435
_cell_length_c                    14.9226
_cell_angle_alpha                 90.0
_cell_angle_beta                  90.0
_cell_angle_gamma                 120.0
loop_
_atom_site_label
_atom_site_type_symbol
_atom_site_fract_x
_atom_site_fract_y
_atom_site_fract_z
V1    V   0.14905  0.50082  0.92763
V2    V   0.14905  0.64823  0.42763
V3    V   0.35177  0.50082  0.42763
V4    V   0.35177  0.85095  0.92763
V5    V   0.49918  0.64823  0.92763
V6    V   0.49918  0.85095  0.42763
V7    V   0.50082  0.14905  0.57237
V8    V   0.50082  0.35177  0.07237
V9    V   0.64823  0.14905  0.07237
V10   V   0.64823  0.49918  0.57237
V11   V   0.85095  0.35177  0.57237
V12   V   0.85095  0.49918  0.07237
E1    E   0.00000  0.42630  0.75000
E2    E   0.00000  0.50000  0.00000
E3    E   0.00000  0.50000  0.50000
E4    E   0.00000  0.57370  0.25000
E5    E   0.25041  0.50082  0.17763
E6    E   0.25041  0.50082  0.67763
E7    E   0.25041  0.57453  0.42763
E8    E   0.25041  0.67588  0.92763
E9    E   0.25041  0.74959  0.17763
E10   E   0.25041  0.74959  0.67763
E11   E   0.32412  0.57453  0.92763
E12   E   0.32412  0.74959  0.42763
E13   E   0.42547  0.67588  0.42763
E14   E   0.42547  0.74959  0.92763
E15   E   0.42630  0.00000  0.75000
E16   E   0.42630  0.42630  0.25000
E17   E   0.49918  0.74959  0.17763
E18   E   0.49918  0.74959  0.67763
E19   E   0.50000  0.00000  0.00000
E20   E   0.50000  0.00000  0.50000
E21   E   0.50000  0.50000  0.00000
E22   E   0.50000  0.50000  0.50000
E23   E   0.50082  0.25041  0.32237
E24   E   0.50082  0.25041  0.82237
E25   E   0.57370  0.00000  0.25000
E26   E   0.57370  0.57370  0.75000
E27   E   0.57453  0.25041  0.07237
E28   E   0.57453  0.32412  0.57237
E29   E   0.67588  0.25041  0.57237
E30   E   0.67588  0.42547  0.07237
E31   E   0.74959  0.25041  0.32237
E32   E   0.74959  0.25041  0.82237
E33   E   0.74959  0.32412  0.07237
E34   E   0.74959  0.42547  0.57237
E35   E   0.74959  0.49918  0.32237
E36   E   0.74959  0.49918  0.82237
loop_
