data_wse_Im-3m  hall_number: 529, V_con: 4
_audit_creation_date              2025-03-06
_audit_creation_method            'MOFbuilder_1.0'
_symmetry_space_group_name_H-M    'P1'
_symmetry_Int_Tables_number       1
_symmetry_cell_setting            triclinic
loop_
_symmetry_equiv_pos_as_xyz
  x,y,z
_cell_length_a                    68.2842
_cell_length_b                    68.2842
_cell_length_c                    68.2842
_cell_angle_alpha                 90.0
_cell_angle_beta                  90.0
_cell_angle_gamma                 90.0
loop_
_atom_site_label
_atom_site_type_symbol
_atom_site_fract_x
_atom_site_fract_y
_atom_site_fract_z
V1    V   0.07322  0.17678  0.42678
V2    V   0.07322  0.17678  0.57322
V3    V   0.07322  0.42678  0.17678
V4    V   0.07322  0.42678  0.82322
V5    V   0.07322  0.57322  0.17678
V6    V   0.07322  0.57322  0.82322
V7    V   0.07322  0.82322  0.42678
V8    V   0.07322  0.82322  0.57322
V9    V   0.07322  0.32322  0.42678
V10   V   0.07322  0.32322  0.57322
V11   V   0.07322  0.42678  0.32322
V12   V   0.07322  0.42678  0.67678
V13   V   0.07322  0.57322  0.32322
V14   V   0.07322  0.57322  0.67678
V15   V   0.07322  0.67678  0.42678
V16   V   0.07322  0.67678  0.57322
V17   V   0.17678  0.07322  0.42678
V18   V   0.17678  0.07322  0.57322
V19   V   0.17678  0.42678  0.07322
V20   V   0.17678  0.42678  0.92678
V21   V   0.17678  0.57322  0.07322
V22   V   0.17678  0.57322  0.92678
V23   V   0.17678  0.92678  0.42678
V24   V   0.17678  0.92678  0.57322
V25   V   0.32322  0.07322  0.42678
V26   V   0.32322  0.07322  0.57322
V27   V   0.32322  0.42678  0.07322
V28   V   0.32322  0.42678  0.92678
V29   V   0.32322  0.57322  0.07322
V30   V   0.32322  0.57322  0.92678
V31   V   0.32322  0.92678  0.42678
V32   V   0.32322  0.92678  0.57322
V33   V   0.42678  0.07322  0.17678
V34   V   0.42678  0.07322  0.82322
V35   V   0.42678  0.07322  0.32322
V36   V   0.42678  0.07322  0.67678
V37   V   0.42678  0.17678  0.07322
V38   V   0.42678  0.17678  0.92678
V39   V   0.42678  0.32322  0.07322
V40   V   0.42678  0.32322  0.92678
V41   V   0.42678  0.67678  0.07322
V42   V   0.42678  0.67678  0.92678
V43   V   0.42678  0.82322  0.07322
V44   V   0.42678  0.82322  0.92678
V45   V   0.42678  0.92678  0.32322
V46   V   0.42678  0.92678  0.67678
V47   V   0.42678  0.92678  0.17678
V48   V   0.42678  0.92678  0.82322
V49   V   0.57322  0.07322  0.32322
V50   V   0.57322  0.07322  0.67678
V51   V   0.57322  0.32322  0.07322
V52   V   0.57322  0.32322  0.92678
V53   V   0.57322  0.67678  0.07322
V54   V   0.57322  0.67678  0.92678
V55   V   0.57322  0.92678  0.32322
V56   V   0.57322  0.92678  0.67678
V57   V   0.57322  0.07322  0.17678
V58   V   0.57322  0.07322  0.82322
V59   V   0.57322  0.17678  0.07322
V60   V   0.57322  0.17678  0.92678
V61   V   0.57322  0.82322  0.07322
V62   V   0.57322  0.82322  0.92678
V63   V   0.57322  0.92678  0.17678
V64   V   0.57322  0.92678  0.82322
V65   V   0.67678  0.07322  0.42678
V66   V   0.67678  0.07322  0.57322
V67   V   0.67678  0.42678  0.07322
V68   V   0.67678  0.42678  0.92678
V69   V   0.67678  0.57322  0.07322
V70   V   0.67678  0.57322  0.92678
V71   V   0.67678  0.92678  0.42678
V72   V   0.67678  0.92678  0.57322
V73   V   0.82322  0.07322  0.42678
V74   V   0.82322  0.07322  0.57322
V75   V   0.82322  0.42678  0.07322
V76   V   0.82322  0.42678  0.92678
V77   V   0.82322  0.57322  0.07322
V78   V   0.82322  0.57322  0.92678
V79   V   0.82322  0.92678  0.42678
V80   V   0.82322  0.92678  0.57322
V81   V   0.92678  0.32322  0.42678
V82   V   0.92678  0.32322  0.57322
V83   V   0.92678  0.42678  0.32322
V84   V   0.92678  0.42678  0.67678
V85   V   0.92678  0.57322  0.32322
V86   V   0.92678  0.57322  0.67678
V87   V   0.92678  0.67678  0.42678
V88   V   0.92678  0.67678  0.57322
V89   V   0.92678  0.17678  0.42678
V90   V   0.92678  0.17678  0.57322
V91   V   0.92678  0.42678  0.17678
V92   V   0.92678  0.42678  0.82322
V93   V   0.92678  0.57322  0.17678
V94   V   0.92678  0.57322  0.82322
V95   V   0.92678  0.82322  0.42678
V96   V   0.92678  0.82322  0.57322
E1    E   0.00000  0.17678  0.42678
E2    E   0.00000  0.17678  0.57322
E3    E   0.00000  0.32322  0.42678
E4    E   0.00000  0.32322  0.57322
E5    E   0.00000  0.42678  0.17678
E6    E   0.00000  0.42678  0.32322
E7    E   0.00000  0.42678  0.67678
E8    E   0.00000  0.42678  0.82322
E9    E   0.00000  0.57322  0.32322
E10   E   0.00000  0.57322  0.67678
E11   E   0.00000  0.57322  0.17678
E12   E   0.00000  0.57322  0.82322
E13   E   0.00000  0.67678  0.42678
E14   E   0.00000  0.67678  0.57322
E15   E   0.00000  0.82322  0.42678
E16   E   0.00000  0.82322  0.57322
E17   E   0.07322  0.17678  0.50000
E18   E   0.07322  0.25000  0.42678
E19   E   0.07322  0.25000  0.57322
E20   E   0.07322  0.42678  0.25000
E21   E   0.07322  0.42678  0.75000
E22   E   0.07322  0.50000  0.17678
E23   E   0.07322  0.50000  0.82322
E24   E   0.07322  0.57322  0.25000
E25   E   0.07322  0.57322  0.75000
E26   E   0.07322  0.75000  0.42678
E27   E   0.07322  0.75000  0.57322
E28   E   0.07322  0.82322  0.50000
E29   E   0.07322  0.25000  0.42678
E30   E   0.07322  0.25000  0.57322
E31   E   0.07322  0.32322  0.50000
E32   E   0.07322  0.37500  0.37500
E33   E   0.07322  0.37500  0.62500
E34   E   0.07322  0.42678  0.25000
E35   E   0.07322  0.42678  0.75000
E36   E   0.07322  0.50000  0.32322
E37   E   0.07322  0.50000  0.67678
E38   E   0.07322  0.57322  0.25000
E39   E   0.07322  0.57322  0.75000
E40   E   0.07322  0.62500  0.37500
E41   E   0.07322  0.62500  0.62500
E42   E   0.07322  0.67678  0.50000
E43   E   0.07322  0.75000  0.42678
E44   E   0.07322  0.75000  0.57322
E45   E   0.12500  0.12500  0.42678
E46   E   0.12500  0.12500  0.57322
E47   E   0.12500  0.42678  0.12500
E48   E   0.12500  0.42678  0.87500
E49   E   0.12500  0.57322  0.12500
E50   E   0.12500  0.57322  0.87500
E51   E   0.12500  0.87500  0.42678
E52   E   0.12500  0.87500  0.57322
E53   E   0.17678  0.00000  0.42678
E54   E   0.17678  0.00000  0.57322
E55   E   0.17678  0.07322  0.50000
E56   E   0.17678  0.42678  0.00000
E57   E   0.17678  0.50000  0.07322
E58   E   0.17678  0.50000  0.92678
E59   E   0.17678  0.57322  0.00000
E60   E   0.17678  0.92678  0.50000
E61   E   0.25000  0.07322  0.42678
E62   E   0.25000  0.07322  0.57322
E63   E   0.25000  0.07322  0.42678
E64   E   0.25000  0.07322  0.57322
E65   E   0.25000  0.42678  0.07322
E66   E   0.25000  0.42678  0.07322
E67   E   0.25000  0.42678  0.92678
E68   E   0.25000  0.42678  0.92678
E69   E   0.25000  0.57322  0.07322
E70   E   0.25000  0.57322  0.92678
E71   E   0.25000  0.57322  0.07322
E72   E   0.25000  0.57322  0.92678
E73   E   0.25000  0.92678  0.42678
E74   E   0.25000  0.92678  0.57322
E75   E   0.25000  0.92678  0.42678
E76   E   0.25000  0.92678  0.57322
E77   E   0.32322  0.00000  0.42678
E78   E   0.32322  0.00000  0.57322
E79   E   0.32322  0.07322  0.50000
E80   E   0.32322  0.42678  0.00000
E81   E   0.32322  0.50000  0.07322
E82   E   0.32322  0.50000  0.92678
E83   E   0.32322  0.57322  0.00000
E84   E   0.32322  0.92678  0.50000
E85   E   0.37500  0.07322  0.37500
E86   E   0.37500  0.07322  0.62500
E87   E   0.37500  0.37500  0.07322
E88   E   0.37500  0.37500  0.92678
E89   E   0.37500  0.62500  0.07322
E90   E   0.37500  0.62500  0.92678
E91   E   0.37500  0.92678  0.37500
E92   E   0.37500  0.92678  0.62500
E93   E   0.42678  0.00000  0.17678
E94   E   0.42678  0.00000  0.32322
E95   E   0.42678  0.00000  0.67678
E96   E   0.42678  0.00000  0.82322
E97   E   0.42678  0.07322  0.25000
E98   E   0.42678  0.07322  0.75000
E99   E   0.42678  0.07322  0.25000
E100  E   0.42678  0.07322  0.75000
E101  E   0.42678  0.12500  0.12500
E102  E   0.42678  0.12500  0.87500
E103  E   0.42678  0.17678  0.00000
E104  E   0.42678  0.25000  0.07322
E105  E   0.42678  0.25000  0.07322
E106  E   0.42678  0.25000  0.92678
E107  E   0.42678  0.25000  0.92678
E108  E   0.42678  0.32322  0.00000
E109  E   0.42678  0.67678  0.00000
E110  E   0.42678  0.75000  0.07322
E111  E   0.42678  0.75000  0.07322
E112  E   0.42678  0.75000  0.92678
E113  E   0.42678  0.75000  0.92678
E114  E   0.42678  0.82322  0.00000
E115  E   0.42678  0.87500  0.12500
E116  E   0.42678  0.87500  0.87500
E117  E   0.42678  0.92678  0.25000
E118  E   0.42678  0.92678  0.75000
E119  E   0.42678  0.92678  0.25000
E120  E   0.42678  0.92678  0.75000
E121  E   0.50000  0.07322  0.17678
E122  E   0.50000  0.07322  0.82322
E123  E   0.50000  0.07322  0.32322
E124  E   0.50000  0.07322  0.67678
E125  E   0.50000  0.17678  0.07322
E126  E   0.50000  0.17678  0.92678
E127  E   0.50000  0.32322  0.07322
E128  E   0.50000  0.32322  0.92678
E129  E   0.50000  0.67678  0.07322
E130  E   0.50000  0.67678  0.92678
E131  E   0.50000  0.82322  0.07322
E132  E   0.50000  0.82322  0.92678
E133  E   0.50000  0.92678  0.32322
E134  E   0.50000  0.92678  0.67678
E135  E   0.50000  0.92678  0.17678
E136  E   0.50000  0.92678  0.82322
E137  E   0.57322  0.00000  0.32322
E138  E   0.57322  0.00000  0.67678
E139  E   0.57322  0.07322  0.25000
E140  E   0.57322  0.07322  0.75000
E141  E   0.57322  0.25000  0.07322
E142  E   0.57322  0.25000  0.92678
E143  E   0.57322  0.32322  0.00000
E144  E   0.57322  0.67678  0.00000
E145  E   0.57322  0.75000  0.07322
E146  E   0.57322  0.75000  0.92678
E147  E   0.57322  0.92678  0.25000
E148  E   0.57322  0.92678  0.75000
E149  E   0.57322  0.00000  0.17678
E150  E   0.57322  0.00000  0.82322
E151  E   0.57322  0.07322  0.25000
E152  E   0.57322  0.07322  0.75000
E153  E   0.57322  0.12500  0.12500
E154  E   0.57322  0.12500  0.87500
E155  E   0.57322  0.17678  0.00000
E156  E   0.57322  0.25000  0.07322
E157  E   0.57322  0.25000  0.92678
E158  E   0.57322  0.75000  0.07322
E159  E   0.57322  0.75000  0.92678
E160  E   0.57322  0.82322  0.00000
E161  E   0.57322  0.87500  0.12500
E162  E   0.57322  0.87500  0.87500
E163  E   0.57322  0.92678  0.25000
E164  E   0.57322  0.92678  0.75000
E165  E   0.62500  0.07322  0.37500
E166  E   0.62500  0.07322  0.62500
E167  E   0.62500  0.37500  0.07322
E168  E   0.62500  0.37500  0.92678
E169  E   0.62500  0.62500  0.07322
E170  E   0.62500  0.62500  0.92678
E171  E   0.62500  0.92678  0.37500
E172  E   0.62500  0.92678  0.62500
E173  E   0.67678  0.00000  0.42678
E174  E   0.67678  0.00000  0.57322
E175  E   0.67678  0.07322  0.50000
E176  E   0.67678  0.42678  0.00000
E177  E   0.67678  0.50000  0.07322
E178  E   0.67678  0.50000  0.92678
E179  E   0.67678  0.57322  0.00000
E180  E   0.67678  0.92678  0.50000
E181  E   0.75000  0.07322  0.42678
E182  E   0.75000  0.07322  0.57322
E183  E   0.75000  0.07322  0.42678
E184  E   0.75000  0.07322  0.57322
E185  E   0.75000  0.42678  0.07322
E186  E   0.75000  0.42678  0.07322
E187  E   0.75000  0.42678  0.92678
E188  E   0.75000  0.42678  0.92678
E189  E   0.75000  0.57322  0.07322
E190  E   0.75000  0.57322  0.92678
E191  E   0.75000  0.57322  0.07322
E192  E   0.75000  0.57322  0.92678
E193  E   0.75000  0.92678  0.42678
E194  E   0.75000  0.92678  0.57322
E195  E   0.75000  0.92678  0.42678
E196  E   0.75000  0.92678  0.57322
E197  E   0.82322  0.00000  0.42678
E198  E   0.82322  0.00000  0.57322
E199  E   0.82322  0.07322  0.50000
E200  E   0.82322  0.42678  0.00000
E201  E   0.82322  0.50000  0.07322
E202  E   0.82322  0.50000  0.92678
E203  E   0.82322  0.57322  0.00000
E204  E   0.82322  0.92678  0.50000
E205  E   0.87500  0.12500  0.42678
E206  E   0.87500  0.12500  0.57322
E207  E   0.87500  0.42678  0.12500
E208  E   0.87500  0.42678  0.87500
E209  E   0.87500  0.57322  0.12500
E210  E   0.87500  0.57322  0.87500
E211  E   0.87500  0.87500  0.42678
E212  E   0.87500  0.87500  0.57322
E213  E   0.92678  0.25000  0.42678
E214  E   0.92678  0.25000  0.57322
E215  E   0.92678  0.32322  0.50000
E216  E   0.92678  0.37500  0.37500
E217  E   0.92678  0.37500  0.62500
E218  E   0.92678  0.42678  0.25000
E219  E   0.92678  0.42678  0.75000
E220  E   0.92678  0.50000  0.32322
E221  E   0.92678  0.50000  0.67678
E222  E   0.92678  0.57322  0.25000
E223  E   0.92678  0.57322  0.75000
E224  E   0.92678  0.62500  0.37500
E225  E   0.92678  0.62500  0.62500
E226  E   0.92678  0.67678  0.50000
E227  E   0.92678  0.75000  0.42678
E228  E   0.92678  0.75000  0.57322
E229  E   0.92678  0.17678  0.50000
E230  E   0.92678  0.25000  0.42678
E231  E   0.92678  0.25000  0.57322
E232  E   0.92678  0.42678  0.25000
E233  E   0.92678  0.42678  0.75000
E234  E   0.92678  0.50000  0.17678
E235  E   0.92678  0.50000  0.82322
E236  E   0.92678  0.57322  0.25000
E237  E   0.92678  0.57322  0.75000
E238  E   0.92678  0.75000  0.42678
E239  E   0.92678  0.75000  0.57322
E240  E   0.92678  0.82322  0.50000
loop_
