data_xad_Im-3m  hall_number: 529, V_con: 4, EC_con: 4
_audit_creation_date              2025-03-06
_audit_creation_method            'MOFbuilder_1.0'
_symmetry_space_group_name_H-M    'P1'
_symmetry_Int_Tables_number       1
_symmetry_cell_setting            triclinic
loop_
_symmetry_equiv_pos_as_xyz
  x,y,z
_cell_length_a                    39.8313
_cell_length_b                    39.8313
_cell_length_c                    39.8313
_cell_angle_alpha                 90.0
_cell_angle_beta                  90.0
_cell_angle_gamma                 90.0
loop_
_atom_site_label
_atom_site_type_symbol
_atom_site_fract_x
_atom_site_fract_y
_atom_site_fract_z
V1    V   0.17753  0.17753  0.17753
V2    V   0.17753  0.17753  0.82247
V3    V   0.17753  0.82247  0.17753
V4    V   0.17753  0.82247  0.82247
V5    V   0.32247  0.32247  0.32247
V6    V   0.32247  0.32247  0.67753
V7    V   0.32247  0.67753  0.32247
V8    V   0.32247  0.67753  0.67753
V9    V   0.67753  0.32247  0.32247
V10   V   0.67753  0.32247  0.67753
V11   V   0.67753  0.67753  0.32247
V12   V   0.67753  0.67753  0.67753
V13   V   0.82247  0.17753  0.17753
V14   V   0.82247  0.17753  0.82247
V15   V   0.82247  0.82247  0.17753
V16   V   0.82247  0.82247  0.82247
EC1    EC   0.00000  0.00000  0.17742
EC2    EC   0.00000  0.00000  0.82258
EC3    EC   0.00000  0.17742  0.00000
EC4    EC   0.00000  0.82258  0.00000
EC5    EC   0.17742  0.00000  0.00000
EC6    EC   0.32258  0.50000  0.50000
EC7    EC   0.50000  0.32258  0.50000
EC8    EC   0.50000  0.50000  0.32258
EC9    EC   0.50000  0.50000  0.67742
EC10   EC   0.50000  0.67742  0.50000
EC11   EC   0.67742  0.50000  0.50000
EC12   EC   0.82258  0.00000  0.00000
E1    E   0.08876  0.08876  0.17747
E2    E   0.08876  0.08876  0.82253
E3    E   0.08876  0.17747  0.08876
E4    E   0.08876  0.17747  0.91124
E5    E   0.08876  0.82253  0.08876
E6    E   0.08876  0.82253  0.91124
E7    E   0.08876  0.91124  0.17747
E8    E   0.08876  0.91124  0.82253
E9    E   0.17747  0.08876  0.08876
E10   E   0.17747  0.08876  0.91124
E11   E   0.17747  0.91124  0.08876
E12   E   0.17747  0.91124  0.91124
E13   E   0.25000  0.25000  0.25000
E14   E   0.25000  0.25000  0.75000
E15   E   0.25000  0.75000  0.25000
E16   E   0.25000  0.75000  0.75000
E17   E   0.32253  0.41124  0.41124
E18   E   0.32253  0.41124  0.58876
E19   E   0.32253  0.58876  0.41124
E20   E   0.32253  0.58876  0.58876
E21   E   0.41124  0.32253  0.41124
E22   E   0.41124  0.32253  0.58876
E23   E   0.41124  0.41124  0.32253
E24   E   0.41124  0.41124  0.67747
E25   E   0.41124  0.58876  0.32253
E26   E   0.41124  0.58876  0.67747
E27   E   0.41124  0.67747  0.41124
E28   E   0.41124  0.67747  0.58876
E29   E   0.58876  0.32253  0.41124
E30   E   0.58876  0.32253  0.58876
E31   E   0.58876  0.41124  0.32253
E32   E   0.58876  0.41124  0.67747
E33   E   0.58876  0.58876  0.32253
E34   E   0.58876  0.58876  0.67747
E35   E   0.58876  0.67747  0.41124
E36   E   0.58876  0.67747  0.58876
E37   E   0.67747  0.41124  0.41124
E38   E   0.67747  0.41124  0.58876
E39   E   0.67747  0.58876  0.41124
E40   E   0.67747  0.58876  0.58876
E41   E   0.75000  0.25000  0.25000
E42   E   0.75000  0.25000  0.75000
E43   E   0.75000  0.75000  0.25000
E44   E   0.75000  0.75000  0.75000
E45   E   0.82253  0.08876  0.08876
E46   E   0.82253  0.08876  0.91124
E47   E   0.82253  0.91124  0.08876
E48   E   0.82253  0.91124  0.91124
E49   E   0.91124  0.08876  0.17747
E50   E   0.91124  0.08876  0.82253
E51   E   0.91124  0.17747  0.08876
E52   E   0.91124  0.17747  0.91124
E53   E   0.91124  0.82253  0.08876
E54   E   0.91124  0.82253  0.91124
E55   E   0.91124  0.91124  0.17747
E56   E   0.91124  0.91124  0.82253
loop_
