data_xbc_Fm-3m  hall_number: 523, V_con: 8, EC_con: 7
_audit_creation_date              2025-03-06
_audit_creation_method            'MOFbuilder_1.0'
_symmetry_space_group_name_H-M    'P1'
_symmetry_Int_Tables_number       1
_symmetry_cell_setting            triclinic
loop_
_symmetry_equiv_pos_as_xyz
  x,y,z
_cell_length_a                    35.2851
_cell_length_b                    35.2851
_cell_length_c                    35.2851
_cell_angle_alpha                 90.0
_cell_angle_beta                  90.0
_cell_angle_gamma                 90.0
loop_
_atom_site_label
_atom_site_type_symbol
_atom_site_fract_x
_atom_site_fract_y
_atom_site_fract_z
V1    V   0.00000  0.00000  0.00000
V2    V   0.00000  0.50000  0.50000
V3    V   0.50000  0.00000  0.50000
V4    V   0.50000  0.50000  0.00000
EC1    EC   0.14908  0.14908  0.14908
EC2    EC   0.14908  0.14908  0.85092
EC3    EC   0.14908  0.35092  0.35092
EC4    EC   0.14908  0.35092  0.64908
EC5    EC   0.14908  0.64908  0.35092
EC6    EC   0.14908  0.64908  0.64908
EC7    EC   0.14908  0.85092  0.14908
EC8    EC   0.14908  0.85092  0.85092
EC9    EC   0.35092  0.14908  0.35092
EC10   EC   0.35092  0.14908  0.64908
EC11   EC   0.35092  0.35092  0.14908
EC12   EC   0.35092  0.35092  0.85092
EC13   EC   0.35092  0.64908  0.14908
EC14   EC   0.35092  0.64908  0.85092
EC15   EC   0.35092  0.85092  0.35092
EC16   EC   0.35092  0.85092  0.64908
EC17   EC   0.64908  0.14908  0.35092
EC18   EC   0.64908  0.14908  0.64908
EC19   EC   0.64908  0.35092  0.14908
EC20   EC   0.64908  0.35092  0.85092
EC21   EC   0.64908  0.64908  0.14908
EC22   EC   0.64908  0.64908  0.85092
EC23   EC   0.64908  0.85092  0.35092
EC24   EC   0.64908  0.85092  0.64908
EC25   EC   0.85092  0.14908  0.14908
EC26   EC   0.85092  0.14908  0.85092
EC27   EC   0.85092  0.35092  0.35092
EC28   EC   0.85092  0.35092  0.64908
EC29   EC   0.85092  0.64908  0.35092
EC30   EC   0.85092  0.64908  0.64908
EC31   EC   0.85092  0.85092  0.14908
EC32   EC   0.85092  0.85092  0.85092
E1    E   0.00000  0.14908  0.14908
E2    E   0.00000  0.14908  0.85092
E3    E   0.00000  0.35092  0.35092
E4    E   0.00000  0.35092  0.64908
E5    E   0.00000  0.64908  0.35092
E6    E   0.00000  0.64908  0.64908
E7    E   0.00000  0.85092  0.14908
E8    E   0.00000  0.85092  0.85092
E9    E   0.07454  0.07454  0.07454
E10   E   0.07454  0.07454  0.92546
E11   E   0.07454  0.42546  0.42546
E12   E   0.07454  0.42546  0.57454
E13   E   0.07454  0.57454  0.42546
E14   E   0.07454  0.57454  0.57454
E15   E   0.07454  0.92546  0.07454
E16   E   0.07454  0.92546  0.92546
E17   E   0.14908  0.00000  0.14908
E18   E   0.14908  0.00000  0.85092
E19   E   0.14908  0.14908  0.00000
E20   E   0.14908  0.25000  0.25000
E21   E   0.14908  0.25000  0.75000
E22   E   0.14908  0.35092  0.50000
E23   E   0.14908  0.50000  0.35092
E24   E   0.14908  0.50000  0.64908
E25   E   0.14908  0.64908  0.50000
E26   E   0.14908  0.75000  0.25000
E27   E   0.14908  0.75000  0.75000
E28   E   0.14908  0.85092  0.00000
E29   E   0.25000  0.14908  0.25000
E30   E   0.25000  0.14908  0.75000
E31   E   0.25000  0.25000  0.14908
E32   E   0.25000  0.25000  0.35092
E33   E   0.25000  0.25000  0.64908
E34   E   0.25000  0.25000  0.85092
E35   E   0.25000  0.35092  0.25000
E36   E   0.25000  0.35092  0.75000
E37   E   0.25000  0.64908  0.25000
E38   E   0.25000  0.64908  0.75000
E39   E   0.25000  0.75000  0.14908
E40   E   0.25000  0.75000  0.35092
E41   E   0.25000  0.75000  0.64908
E42   E   0.25000  0.75000  0.85092
E43   E   0.25000  0.85092  0.25000
E44   E   0.25000  0.85092  0.75000
E45   E   0.35092  0.00000  0.35092
E46   E   0.35092  0.00000  0.64908
E47   E   0.35092  0.14908  0.50000
E48   E   0.35092  0.25000  0.25000
E49   E   0.35092  0.25000  0.75000
E50   E   0.35092  0.35092  0.00000
E51   E   0.35092  0.50000  0.14908
E52   E   0.35092  0.50000  0.85092
E53   E   0.35092  0.64908  0.00000
E54   E   0.35092  0.75000  0.25000
E55   E   0.35092  0.75000  0.75000
E56   E   0.35092  0.85092  0.50000
E57   E   0.42546  0.07454  0.42546
E58   E   0.42546  0.07454  0.57454
E59   E   0.42546  0.42546  0.07454
E60   E   0.42546  0.42546  0.92546
E61   E   0.42546  0.57454  0.07454
E62   E   0.42546  0.57454  0.92546
E63   E   0.42546  0.92546  0.42546
E64   E   0.42546  0.92546  0.57454
E65   E   0.50000  0.14908  0.35092
E66   E   0.50000  0.14908  0.64908
E67   E   0.50000  0.35092  0.14908
E68   E   0.50000  0.35092  0.85092
E69   E   0.50000  0.64908  0.14908
E70   E   0.50000  0.64908  0.85092
E71   E   0.50000  0.85092  0.35092
E72   E   0.50000  0.85092  0.64908
E73   E   0.57454  0.07454  0.42546
E74   E   0.57454  0.07454  0.57454
E75   E   0.57454  0.42546  0.07454
E76   E   0.57454  0.42546  0.92546
E77   E   0.57454  0.57454  0.07454
E78   E   0.57454  0.57454  0.92546
E79   E   0.57454  0.92546  0.42546
E80   E   0.57454  0.92546  0.57454
E81   E   0.64908  0.00000  0.35092
E82   E   0.64908  0.00000  0.64908
E83   E   0.64908  0.14908  0.50000
E84   E   0.64908  0.25000  0.25000
E85   E   0.64908  0.25000  0.75000
E86   E   0.64908  0.35092  0.00000
E87   E   0.64908  0.50000  0.14908
E88   E   0.64908  0.50000  0.85092
E89   E   0.64908  0.64908  0.00000
E90   E   0.64908  0.75000  0.25000
E91   E   0.64908  0.75000  0.75000
E92   E   0.64908  0.85092  0.50000
E93   E   0.75000  0.14908  0.25000
E94   E   0.75000  0.14908  0.75000
E95   E   0.75000  0.25000  0.14908
E96   E   0.75000  0.25000  0.35092
E97   E   0.75000  0.25000  0.64908
E98   E   0.75000  0.25000  0.85092
E99   E   0.75000  0.35092  0.25000
E100  E   0.75000  0.35092  0.75000
E101  E   0.75000  0.64908  0.25000
E102  E   0.75000  0.64908  0.75000
E103  E   0.75000  0.75000  0.14908
E104  E   0.75000  0.75000  0.35092
E105  E   0.75000  0.75000  0.64908
E106  E   0.75000  0.75000  0.85092
E107  E   0.75000  0.85092  0.25000
E108  E   0.75000  0.85092  0.75000
E109  E   0.85092  0.00000  0.14908
E110  E   0.85092  0.00000  0.85092
E111  E   0.85092  0.14908  0.00000
E112  E   0.85092  0.25000  0.25000
E113  E   0.85092  0.25000  0.75000
E114  E   0.85092  0.35092  0.50000
E115  E   0.85092  0.50000  0.35092
E116  E   0.85092  0.50000  0.64908
E117  E   0.85092  0.64908  0.50000
E118  E   0.85092  0.75000  0.25000
E119  E   0.85092  0.75000  0.75000
E120  E   0.85092  0.85092  0.00000
E121  E   0.92546  0.07454  0.07454
E122  E   0.92546  0.07454  0.92546
E123  E   0.92546  0.42546  0.42546
E124  E   0.92546  0.42546  0.57454
E125  E   0.92546  0.57454  0.42546
E126  E   0.92546  0.57454  0.57454
E127  E   0.92546  0.92546  0.07454
E128  E   0.92546  0.92546  0.92546
loop_
