data_xbl_Pm-3n  hall_number: 520, V_con: 4, EC_con: 3
_audit_creation_date              2025-03-06
_audit_creation_method            'MOFbuilder_1.0'
_symmetry_space_group_name_H-M    'P1'
_symmetry_Int_Tables_number       1
_symmetry_cell_setting            triclinic
loop_
_symmetry_equiv_pos_as_xyz
  x,y,z
_cell_length_a                    36.4575
_cell_length_b                    36.4575
_cell_length_c                    36.4575
_cell_angle_alpha                 90.0
_cell_angle_beta                  90.0
_cell_angle_gamma                 90.0
loop_
_atom_site_label
_atom_site_type_symbol
_atom_site_fract_x
_atom_site_fract_y
_atom_site_fract_z
V1    V   0.00000  0.25000  0.50000
V2    V   0.00000  0.75000  0.50000
V3    V   0.25000  0.50000  0.00000
V4    V   0.50000  0.00000  0.25000
V5    V   0.50000  0.00000  0.75000
V6    V   0.75000  0.50000  0.00000
EC1    EC   0.00000  0.50000  0.11285
EC2    EC   0.00000  0.50000  0.38715
EC3    EC   0.00000  0.50000  0.61285
EC4    EC   0.00000  0.50000  0.88715
EC5    EC   0.11285  0.00000  0.50000
EC6    EC   0.38715  0.00000  0.50000
EC7    EC   0.50000  0.11285  0.00000
EC8    EC   0.50000  0.38715  0.00000
EC9    EC   0.50000  0.61285  0.00000
EC10   EC   0.50000  0.88715  0.00000
EC11   EC   0.61285  0.00000  0.50000
EC12   EC   0.88715  0.00000  0.50000
E1    E   0.00000  0.37500  0.44357
E2    E   0.00000  0.37500  0.55643
E3    E   0.00000  0.50000  0.25000
E4    E   0.00000  0.50000  0.75000
E5    E   0.00000  0.62500  0.44357
E6    E   0.00000  0.62500  0.55643
E7    E   0.05643  0.12500  0.50000
E8    E   0.05643  0.87500  0.50000
E9    E   0.12500  0.50000  0.05643
E10   E   0.12500  0.50000  0.94357
E11   E   0.25000  0.00000  0.50000
E12   E   0.37500  0.44357  0.00000
E13   E   0.37500  0.55643  0.00000
E14   E   0.44357  0.00000  0.37500
E15   E   0.44357  0.00000  0.62500
E16   E   0.50000  0.05643  0.12500
E17   E   0.50000  0.05643  0.87500
E18   E   0.50000  0.25000  0.00000
E19   E   0.50000  0.75000  0.00000
E20   E   0.50000  0.94357  0.12500
E21   E   0.50000  0.94357  0.87500
E22   E   0.55643  0.00000  0.37500
E23   E   0.55643  0.00000  0.62500
E24   E   0.62500  0.44357  0.00000
E25   E   0.62500  0.55643  0.00000
E26   E   0.75000  0.00000  0.50000
E27   E   0.87500  0.50000  0.05643
E28   E   0.87500  0.50000  0.94357
E29   E   0.94357  0.12500  0.50000
E30   E   0.94357  0.87500  0.50000
loop_
