data_xca_Immm  hall_number: 337, V_con: 4, EC_con: 3
_audit_creation_date              2025-03-06
_audit_creation_method            'MOFbuilder_1.0'
_symmetry_space_group_name_H-M    'P1'
_symmetry_Int_Tables_number       1
_symmetry_cell_setting            triclinic
loop_
_symmetry_equiv_pos_as_xyz
  x,y,z
_cell_length_a                    26.6744
_cell_length_b                    44.618
_cell_length_c                    17.5411
_cell_angle_alpha                 90.0
_cell_angle_beta                  90.0
_cell_angle_gamma                 90.0
loop_
_atom_site_label
_atom_site_type_symbol
_atom_site_fract_x
_atom_site_fract_y
_atom_site_fract_z
V1    V   0.18745  0.28872  0.00000
V2    V   0.18745  0.71128  0.00000
V3    V   0.31255  0.21128  0.50000
V4    V   0.31255  0.78872  0.50000
V5    V   0.68745  0.21128  0.50000
V6    V   0.68745  0.78872  0.50000
V7    V   0.81255  0.28872  0.00000
V8    V   0.81255  0.71128  0.00000
EC1    EC   0.18745  0.00000  0.50000
EC2    EC   0.31255  0.50000  0.00000
EC3    EC   0.68745  0.50000  0.00000
EC4    EC   0.81255  0.00000  0.50000
E1    E   0.00000  0.00000  0.50000
E2    E   0.00000  0.28872  0.00000
E3    E   0.00000  0.71128  0.00000
E4    E   0.25000  0.10564  0.50000
E5    E   0.25000  0.25000  0.25000
E6    E   0.25000  0.25000  0.75000
E7    E   0.25000  0.39436  0.00000
E8    E   0.25000  0.60564  0.00000
E9    E   0.25000  0.75000  0.25000
E10   E   0.25000  0.75000  0.75000
E11   E   0.25000  0.89436  0.50000
E12   E   0.50000  0.21128  0.50000
E13   E   0.50000  0.50000  0.00000
E14   E   0.50000  0.78872  0.50000
E15   E   0.75000  0.10564  0.50000
E16   E   0.75000  0.25000  0.25000
E17   E   0.75000  0.25000  0.75000
E18   E   0.75000  0.39436  0.00000
E19   E   0.75000  0.60564  0.00000
E20   E   0.75000  0.75000  0.25000
E21   E   0.75000  0.75000  0.75000
E22   E   0.75000  0.89436  0.50000
loop_
