data_xfr_I41/acd:2  hall_number: 429, V_con: 7
_audit_creation_date              2025-03-06
_audit_creation_method            'MOFbuilder_1.0'
_symmetry_space_group_name_H-M    'P1'
_symmetry_Int_Tables_number       1
_symmetry_cell_setting            triclinic
loop_
_symmetry_equiv_pos_as_xyz
  x,y,z
_cell_length_a                    19.3185
_cell_length_b                    19.3185
_cell_length_c                    75.8614
_cell_angle_alpha                 90.0
_cell_angle_beta                  90.0
_cell_angle_gamma                 90.0
loop_
_atom_site_label
_atom_site_type_symbol
_atom_site_fract_x
_atom_site_fract_y
_atom_site_fract_z
V1    V   0.18301  0.06698  0.43634
V2    V   0.18301  0.43302  0.93634
V3    V   0.18301  0.56698  0.56366
V4    V   0.18301  0.93302  0.06366
V5    V   0.18302  0.06699  0.81366
V6    V   0.18302  0.43301  0.31366
V7    V   0.18302  0.56699  0.18634
V8    V   0.18302  0.93301  0.68634
V9    V   0.31698  0.06699  0.18634
V10   V   0.31698  0.43301  0.68634
V11   V   0.31698  0.56699  0.81366
V12   V   0.31698  0.93301  0.31366
V13   V   0.31699  0.06698  0.56366
V14   V   0.31699  0.43302  0.06366
V15   V   0.31699  0.56698  0.43634
V16   V   0.31699  0.93302  0.93634
V17   V   0.68301  0.06698  0.06366
V18   V   0.68301  0.43302  0.56366
V19   V   0.68301  0.56698  0.93634
V20   V   0.68301  0.93302  0.43634
V21   V   0.68302  0.06699  0.68634
V22   V   0.68302  0.43301  0.18634
V23   V   0.68302  0.56699  0.31366
V24   V   0.68302  0.93301  0.81366
V25   V   0.81698  0.06699  0.31366
V26   V   0.81698  0.43301  0.81366
V27   V   0.81698  0.56699  0.68634
V28   V   0.81698  0.93301  0.18634
V29   V   0.81699  0.06698  0.93634
V30   V   0.81699  0.43302  0.43634
V31   V   0.81699  0.56698  0.06366
V32   V   0.81699  0.93302  0.56366
E1    E   0.00000  0.25000  0.31366
E2    E   0.00000  0.25000  0.43634
E3    E   0.00000  0.25000  0.81366
E4    E   0.00000  0.25000  0.93634
E5    E   0.00000  0.75000  0.06366
E6    E   0.00000  0.75000  0.18634
E7    E   0.00000  0.75000  0.56366
E8    E   0.00000  0.75000  0.68634
E9    E   0.06698  0.00000  0.18634
E10   E   0.06698  0.00000  0.31366
E11   E   0.06698  0.50000  0.68634
E12   E   0.06698  0.50000  0.81366
E13   E   0.06699  0.00000  0.56366
E14   E   0.06699  0.00000  0.93634
E15   E   0.06699  0.50000  0.06366
E16   E   0.06699  0.50000  0.43634
E17   E   0.18302  0.00000  0.75000
E18   E   0.18302  0.50000  0.25000
E19   E   0.25000  0.00000  0.12500
E20   E   0.25000  0.00000  0.37500
E21   E   0.25000  0.00000  0.62500
E22   E   0.25000  0.00000  0.87500
E23   E   0.25000  0.06698  0.50000
E24   E   0.25000  0.18301  0.31366
E25   E   0.25000  0.18301  0.68634
E26   E   0.25000  0.18302  0.06366
E27   E   0.25000  0.18302  0.93634
E28   E   0.25000  0.31698  0.43634
E29   E   0.25000  0.31698  0.56366
E30   E   0.25000  0.31699  0.18634
E31   E   0.25000  0.31699  0.81366
E32   E   0.25000  0.43302  0.00000
E33   E   0.25000  0.50000  0.12500
E34   E   0.25000  0.50000  0.37500
E35   E   0.25000  0.50000  0.62500
E36   E   0.25000  0.50000  0.87500
E37   E   0.25000  0.56698  0.50000
E38   E   0.25000  0.68301  0.31366
E39   E   0.25000  0.68301  0.68634
E40   E   0.25000  0.68302  0.06366
E41   E   0.25000  0.68302  0.93634
E42   E   0.25000  0.81698  0.43634
E43   E   0.25000  0.81698  0.56366
E44   E   0.25000  0.81699  0.18634
E45   E   0.25000  0.81699  0.81366
E46   E   0.25000  0.93302  0.00000
E47   E   0.31698  0.00000  0.25000
E48   E   0.31698  0.50000  0.75000
E49   E   0.43301  0.00000  0.06366
E50   E   0.43301  0.00000  0.43634
E51   E   0.43301  0.50000  0.56366
E52   E   0.43301  0.50000  0.93634
E53   E   0.43302  0.00000  0.68634
E54   E   0.43302  0.00000  0.81366
E55   E   0.43302  0.50000  0.18634
E56   E   0.43302  0.50000  0.31366
E57   E   0.50000  0.25000  0.06366
E58   E   0.50000  0.25000  0.18634
E59   E   0.50000  0.25000  0.56366
E60   E   0.50000  0.25000  0.68634
E61   E   0.50000  0.75000  0.31366
E62   E   0.50000  0.75000  0.43634
E63   E   0.50000  0.75000  0.81366
E64   E   0.50000  0.75000  0.93634
E65   E   0.56698  0.00000  0.18634
E66   E   0.56698  0.00000  0.31366
E67   E   0.56698  0.50000  0.68634
E68   E   0.56698  0.50000  0.81366
E69   E   0.56699  0.00000  0.56366
E70   E   0.56699  0.00000  0.93634
E71   E   0.56699  0.50000  0.06366
E72   E   0.56699  0.50000  0.43634
E73   E   0.68302  0.00000  0.75000
E74   E   0.68302  0.50000  0.25000
E75   E   0.75000  0.00000  0.12500
E76   E   0.75000  0.00000  0.37500
E77   E   0.75000  0.00000  0.62500
E78   E   0.75000  0.00000  0.87500
E79   E   0.75000  0.06698  0.00000
E80   E   0.75000  0.18301  0.18634
E81   E   0.75000  0.18301  0.81366
E82   E   0.75000  0.18302  0.43634
E83   E   0.75000  0.18302  0.56366
E84   E   0.75000  0.31698  0.06366
E85   E   0.75000  0.31698  0.93634
E86   E   0.75000  0.31699  0.31366
E87   E   0.75000  0.31699  0.68634
E88   E   0.75000  0.43302  0.50000
E89   E   0.75000  0.50000  0.12500
E90   E   0.75000  0.50000  0.37500
E91   E   0.75000  0.50000  0.62500
E92   E   0.75000  0.50000  0.87500
E93   E   0.75000  0.56698  0.00000
E94   E   0.75000  0.68301  0.18634
E95   E   0.75000  0.68301  0.81366
E96   E   0.75000  0.68302  0.43634
E97   E   0.75000  0.68302  0.56366
E98   E   0.75000  0.81698  0.06366
E99   E   0.75000  0.81698  0.93634
E100  E   0.75000  0.81699  0.31366
E101  E   0.75000  0.81699  0.68634
E102  E   0.75000  0.93302  0.50000
E103  E   0.81698  0.00000  0.25000
E104  E   0.81698  0.50000  0.75000
E105  E   0.93301  0.00000  0.06366
E106  E   0.93301  0.00000  0.43634
E107  E   0.93301  0.50000  0.56366
E108  E   0.93301  0.50000  0.93634
E109  E   0.93302  0.00000  0.68634
E110  E   0.93302  0.00000  0.81366
E111  E   0.93302  0.50000  0.18634
E112  E   0.93302  0.50000  0.31366
loop_
