data_xfs_I41/acd:2  hall_number: 429, V_con: 7
_audit_creation_date              2025-03-06
_audit_creation_method            'MOFbuilder_1.0'
_symmetry_space_group_name_H-M    'P1'
_symmetry_Int_Tables_number       1
_symmetry_cell_setting            triclinic
loop_
_symmetry_equiv_pos_as_xyz
  x,y,z
_cell_length_a                    19.3185
_cell_length_b                    19.3185
_cell_length_c                    78.6371
_cell_angle_alpha                 90.0
_cell_angle_beta                  90.0
_cell_angle_gamma                 90.0
loop_
_atom_site_label
_atom_site_type_symbol
_atom_site_fract_x
_atom_site_fract_y
_atom_site_fract_z
V1    V   0.18301  0.06698  0.06142
V2    V   0.18301  0.43302  0.56142
V3    V   0.18301  0.56698  0.93858
V4    V   0.18301  0.93302  0.43858
V5    V   0.18302  0.06699  0.18858
V6    V   0.18302  0.43301  0.68858
V7    V   0.18302  0.56699  0.81142
V8    V   0.18302  0.93301  0.31142
V9    V   0.31698  0.06699  0.81142
V10   V   0.31698  0.43301  0.31142
V11   V   0.31698  0.56699  0.18858
V12   V   0.31698  0.93301  0.68858
V13   V   0.31699  0.06698  0.93858
V14   V   0.31699  0.43302  0.43858
V15   V   0.31699  0.56698  0.06142
V16   V   0.31699  0.93302  0.56142
V17   V   0.68301  0.06698  0.43858
V18   V   0.68301  0.43302  0.93858
V19   V   0.68301  0.56698  0.56142
V20   V   0.68301  0.93302  0.06142
V21   V   0.68302  0.06699  0.31142
V22   V   0.68302  0.43301  0.81142
V23   V   0.68302  0.56699  0.68858
V24   V   0.68302  0.93301  0.18858
V25   V   0.81698  0.06699  0.68858
V26   V   0.81698  0.43301  0.18858
V27   V   0.81698  0.56699  0.31142
V28   V   0.81698  0.93301  0.81142
V29   V   0.81699  0.06698  0.56142
V30   V   0.81699  0.43302  0.06142
V31   V   0.81699  0.56698  0.43858
V32   V   0.81699  0.93302  0.93858
E1    E   0.00000  0.25000  0.06142
E2    E   0.00000  0.25000  0.18858
E3    E   0.00000  0.25000  0.56142
E4    E   0.00000  0.25000  0.68858
E5    E   0.00000  0.75000  0.31142
E6    E   0.00000  0.75000  0.43858
E7    E   0.00000  0.75000  0.81142
E8    E   0.00000  0.75000  0.93858
E9    E   0.06698  0.00000  0.68858
E10   E   0.06698  0.00000  0.81142
E11   E   0.06698  0.50000  0.18858
E12   E   0.06698  0.50000  0.31142
E13   E   0.06699  0.00000  0.56142
E14   E   0.06699  0.00000  0.93858
E15   E   0.06699  0.50000  0.06142
E16   E   0.06699  0.50000  0.43858
E17   E   0.18301  0.06699  0.12500
E18   E   0.18301  0.43301  0.62500
E19   E   0.18301  0.56699  0.87500
E20   E   0.18301  0.93301  0.37500
E21   E   0.18302  0.00000  0.25000
E22   E   0.18302  0.50000  0.75000
E23   E   0.25000  0.06698  0.00000
E24   E   0.25000  0.18301  0.31142
E25   E   0.25000  0.18301  0.68858
E26   E   0.25000  0.18302  0.43858
E27   E   0.25000  0.18302  0.56142
E28   E   0.25000  0.31698  0.06142
E29   E   0.25000  0.31698  0.93858
E30   E   0.25000  0.31699  0.18858
E31   E   0.25000  0.31699  0.81142
E32   E   0.25000  0.43302  0.50000
E33   E   0.25000  0.56698  0.00000
E34   E   0.25000  0.68301  0.31142
E35   E   0.25000  0.68301  0.68858
E36   E   0.25000  0.68302  0.43858
E37   E   0.25000  0.68302  0.56142
E38   E   0.25000  0.81698  0.06142
E39   E   0.25000  0.81698  0.93858
E40   E   0.25000  0.81699  0.18858
E41   E   0.25000  0.81699  0.81142
E42   E   0.25000  0.93302  0.50000
E43   E   0.31698  0.00000  0.75000
E44   E   0.31698  0.50000  0.25000
E45   E   0.31699  0.06699  0.87500
E46   E   0.31699  0.43301  0.37500
E47   E   0.31699  0.56699  0.12500
E48   E   0.31699  0.93301  0.62500
E49   E   0.43301  0.00000  0.06142
E50   E   0.43301  0.00000  0.43858
E51   E   0.43301  0.50000  0.56142
E52   E   0.43301  0.50000  0.93858
E53   E   0.43302  0.00000  0.18858
E54   E   0.43302  0.00000  0.31142
E55   E   0.43302  0.50000  0.68858
E56   E   0.43302  0.50000  0.81142
E57   E   0.50000  0.25000  0.31142
E58   E   0.50000  0.25000  0.43858
E59   E   0.50000  0.25000  0.81142
E60   E   0.50000  0.25000  0.93858
E61   E   0.50000  0.75000  0.06142
E62   E   0.50000  0.75000  0.18858
E63   E   0.50000  0.75000  0.56142
E64   E   0.50000  0.75000  0.68858
E65   E   0.56698  0.00000  0.68858
E66   E   0.56698  0.00000  0.81142
E67   E   0.56698  0.50000  0.18858
E68   E   0.56698  0.50000  0.31142
E69   E   0.56699  0.00000  0.56142
E70   E   0.56699  0.00000  0.93858
E71   E   0.56699  0.50000  0.06142
E72   E   0.56699  0.50000  0.43858
E73   E   0.68301  0.06699  0.37500
E74   E   0.68301  0.43301  0.87500
E75   E   0.68301  0.56699  0.62500
E76   E   0.68301  0.93301  0.12500
E77   E   0.68302  0.00000  0.25000
E78   E   0.68302  0.50000  0.75000
E79   E   0.75000  0.06698  0.50000
E80   E   0.75000  0.18301  0.18858
E81   E   0.75000  0.18301  0.81142
E82   E   0.75000  0.18302  0.06142
E83   E   0.75000  0.18302  0.93858
E84   E   0.75000  0.31698  0.43858
E85   E   0.75000  0.31698  0.56142
E86   E   0.75000  0.31699  0.31142
E87   E   0.75000  0.31699  0.68858
E88   E   0.75000  0.43302  0.00000
E89   E   0.75000  0.56698  0.50000
E90   E   0.75000  0.68301  0.18858
E91   E   0.75000  0.68301  0.81142
E92   E   0.75000  0.68302  0.06142
E93   E   0.75000  0.68302  0.93858
E94   E   0.75000  0.81698  0.43858
E95   E   0.75000  0.81698  0.56142
E96   E   0.75000  0.81699  0.31142
E97   E   0.75000  0.81699  0.68858
E98   E   0.75000  0.93302  0.00000
E99   E   0.81698  0.00000  0.75000
E100  E   0.81698  0.50000  0.25000
E101  E   0.81699  0.06699  0.62500
E102  E   0.81699  0.43301  0.12500
E103  E   0.81699  0.56699  0.37500
E104  E   0.81699  0.93301  0.87500
E105  E   0.93301  0.00000  0.06142
E106  E   0.93301  0.00000  0.43858
E107  E   0.93301  0.50000  0.56142
E108  E   0.93301  0.50000  0.93858
E109  E   0.93302  0.00000  0.18858
E110  E   0.93302  0.00000  0.31142
E111  E   0.93302  0.50000  0.68858
E112  E   0.93302  0.50000  0.81142
loop_
