data_xfz_I-42m  hall_number: 398, V_con: 5
_audit_creation_date              2025-03-06
_audit_creation_method            'MOFbuilder_1.0'
_symmetry_space_group_name_H-M    'P1'
_symmetry_Int_Tables_number       1
_symmetry_cell_setting            triclinic
loop_
_symmetry_equiv_pos_as_xyz
  x,y,z
_cell_length_a                    27.684
_cell_length_b                    27.684
_cell_length_c                    31.7604
_cell_angle_alpha                 90.0
_cell_angle_beta                  90.0
_cell_angle_gamma                 90.0
loop_
_atom_site_label
_atom_site_type_symbol
_atom_site_fract_x
_atom_site_fract_y
_atom_site_fract_z
V1    V   0.08548  0.34090  0.86132
V2    V   0.08548  0.65910  0.13868
V3    V   0.15910  0.41452  0.36132
V4    V   0.15910  0.58548  0.63868
V5    V   0.34090  0.08548  0.86132
V6    V   0.34090  0.91452  0.13868
V7    V   0.41452  0.15910  0.36132
V8    V   0.41452  0.84090  0.63868
V9    V   0.58548  0.15910  0.63868
V10   V   0.58548  0.84090  0.36132
V11   V   0.65910  0.08548  0.13868
V12   V   0.65910  0.91452  0.86132
V13   V   0.84090  0.41452  0.63868
V14   V   0.84090  0.58548  0.36132
V15   V   0.91452  0.34090  0.13868
V16   V   0.91452  0.65910  0.86132
E1    E   0.00000  0.34090  0.00000
E2    E   0.00000  0.50000  0.13868
E3    E   0.00000  0.50000  0.36132
E4    E   0.00000  0.50000  0.63868
E5    E   0.00000  0.50000  0.86132
E6    E   0.00000  0.65910  0.00000
E7    E   0.03681  0.37771  0.25000
E8    E   0.03681  0.62229  0.75000
E9    E   0.12229  0.46319  0.75000
E10   E   0.12229  0.53681  0.25000
E11   E   0.15910  0.50000  0.50000
E12   E   0.21319  0.21319  0.86132
E13   E   0.21319  0.78681  0.13868
E14   E   0.28681  0.28681  0.36132
E15   E   0.28681  0.71319  0.63868
E16   E   0.34090  0.00000  0.00000
E17   E   0.37771  0.03681  0.25000
E18   E   0.37771  0.96319  0.75000
E19   E   0.46319  0.12229  0.75000
E20   E   0.46319  0.87771  0.25000
E21   E   0.50000  0.00000  0.13868
E22   E   0.50000  0.00000  0.36132
E23   E   0.50000  0.00000  0.63868
E24   E   0.50000  0.00000  0.86132
E25   E   0.50000  0.15910  0.50000
E26   E   0.50000  0.84090  0.50000
E27   E   0.53681  0.12229  0.25000
E28   E   0.53681  0.87771  0.75000
E29   E   0.62229  0.03681  0.75000
E30   E   0.62229  0.96319  0.25000
E31   E   0.65910  0.00000  0.00000
E32   E   0.71319  0.28681  0.63868
E33   E   0.71319  0.71319  0.36132
E34   E   0.78681  0.21319  0.13868
E35   E   0.78681  0.78681  0.86132
E36   E   0.84090  0.50000  0.50000
E37   E   0.87771  0.46319  0.25000
E38   E   0.87771  0.53681  0.75000
E39   E   0.96319  0.37771  0.75000
E40   E   0.96319  0.62229  0.25000
loop_
