data_xii_Im-3m  hall_number: 529, V_con: 12
_audit_creation_date              2025-03-06
_audit_creation_method            'MOFbuilder_1.0'
_symmetry_space_group_name_H-M    'P1'
_symmetry_Int_Tables_number       1
_symmetry_cell_setting            triclinic
loop_
_symmetry_equiv_pos_as_xyz
  x,y,z
_cell_length_a                    18.871
_cell_length_b                    18.871
_cell_length_c                    18.871
_cell_angle_alpha                 90.0
_cell_angle_beta                  90.0
_cell_angle_gamma                 90.0
loop_
_atom_site_label
_atom_site_type_symbol
_atom_site_fract_x
_atom_site_fract_y
_atom_site_fract_z
V1    V   0.00000  0.00000  0.37229
V2    V   0.00000  0.00000  0.62771
V3    V   0.00000  0.37229  0.00000
V4    V   0.00000  0.62771  0.00000
V5    V   0.12771  0.50000  0.50000
V6    V   0.37229  0.00000  0.00000
V7    V   0.50000  0.12771  0.50000
V8    V   0.50000  0.50000  0.12771
V9    V   0.50000  0.50000  0.87229
V10   V   0.50000  0.87229  0.50000
V11   V   0.62771  0.00000  0.00000
V12   V   0.87229  0.50000  0.50000
E1    E   0.00000  0.18615  0.18615
E2    E   0.00000  0.18615  0.81385
E3    E   0.00000  0.81385  0.18615
E4    E   0.00000  0.81385  0.81385
E5    E   0.06385  0.25000  0.43615
E6    E   0.06385  0.25000  0.56385
E7    E   0.06385  0.43615  0.25000
E8    E   0.06385  0.43615  0.75000
E9    E   0.06385  0.56385  0.25000
E10   E   0.06385  0.56385  0.75000
E11   E   0.06385  0.75000  0.43615
E12   E   0.06385  0.75000  0.56385
E13   E   0.06385  0.25000  0.43615
E14   E   0.06385  0.25000  0.56385
E15   E   0.06385  0.43615  0.25000
E16   E   0.06385  0.43615  0.75000
E17   E   0.06385  0.56385  0.25000
E18   E   0.06385  0.56385  0.75000
E19   E   0.06385  0.75000  0.43615
E20   E   0.06385  0.75000  0.56385
E21   E   0.18615  0.00000  0.18615
E22   E   0.18615  0.00000  0.81385
E23   E   0.18615  0.18615  0.00000
E24   E   0.18615  0.81385  0.00000
E25   E   0.25000  0.06385  0.43615
E26   E   0.25000  0.06385  0.56385
E27   E   0.25000  0.06385  0.43615
E28   E   0.25000  0.06385  0.56385
E29   E   0.25000  0.43615  0.06385
E30   E   0.25000  0.43615  0.06385
E31   E   0.25000  0.43615  0.93615
E32   E   0.25000  0.56385  0.06385
E33   E   0.25000  0.56385  0.06385
E34   E   0.25000  0.56385  0.93615
E35   E   0.25000  0.93615  0.43615
E36   E   0.25000  0.93615  0.56385
E37   E   0.31385  0.31385  0.50000
E38   E   0.31385  0.50000  0.31385
E39   E   0.31385  0.50000  0.68615
E40   E   0.31385  0.68615  0.50000
E41   E   0.43615  0.06385  0.25000
E42   E   0.43615  0.06385  0.75000
E43   E   0.43615  0.06385  0.25000
E44   E   0.43615  0.06385  0.75000
E45   E   0.43615  0.25000  0.06385
E46   E   0.43615  0.25000  0.06385
E47   E   0.43615  0.25000  0.93615
E48   E   0.43615  0.75000  0.06385
E49   E   0.43615  0.75000  0.06385
E50   E   0.43615  0.75000  0.93615
E51   E   0.43615  0.93615  0.25000
E52   E   0.43615  0.93615  0.75000
E53   E   0.50000  0.31385  0.31385
E54   E   0.50000  0.31385  0.68615
E55   E   0.50000  0.68615  0.31385
E56   E   0.50000  0.68615  0.68615
E57   E   0.56385  0.06385  0.25000
E58   E   0.56385  0.06385  0.75000
E59   E   0.56385  0.06385  0.25000
E60   E   0.56385  0.06385  0.75000
E61   E   0.56385  0.25000  0.06385
E62   E   0.56385  0.25000  0.06385
E63   E   0.56385  0.25000  0.93615
E64   E   0.56385  0.75000  0.06385
E65   E   0.56385  0.75000  0.06385
E66   E   0.56385  0.75000  0.93615
E67   E   0.56385  0.93615  0.25000
E68   E   0.56385  0.93615  0.75000
E69   E   0.68615  0.31385  0.50000
E70   E   0.68615  0.50000  0.31385
E71   E   0.68615  0.50000  0.68615
E72   E   0.68615  0.68615  0.50000
E73   E   0.75000  0.06385  0.43615
E74   E   0.75000  0.06385  0.56385
E75   E   0.75000  0.06385  0.43615
E76   E   0.75000  0.06385  0.56385
E77   E   0.75000  0.43615  0.06385
E78   E   0.75000  0.43615  0.06385
E79   E   0.75000  0.43615  0.93615
E80   E   0.75000  0.56385  0.06385
E81   E   0.75000  0.56385  0.06385
E82   E   0.75000  0.56385  0.93615
E83   E   0.75000  0.93615  0.43615
E84   E   0.75000  0.93615  0.56385
E85   E   0.81385  0.00000  0.18615
E86   E   0.81385  0.00000  0.81385
E87   E   0.81385  0.18615  0.00000
E88   E   0.81385  0.81385  0.00000
E89   E   0.93615  0.25000  0.43615
E90   E   0.93615  0.25000  0.56385
E91   E   0.93615  0.43615  0.25000
E92   E   0.93615  0.43615  0.75000
E93   E   0.93615  0.56385  0.25000
E94   E   0.93615  0.56385  0.75000
E95   E   0.93615  0.75000  0.43615
E96   E   0.93615  0.75000  0.56385
loop_
