data_xly_P6/mmm  hall_number: 485, V_con: 8, EC_con: 3
_audit_creation_date              2025-03-06
_audit_creation_method            'MOFbuilder_1.0'
_symmetry_space_group_name_H-M    'P1'
_symmetry_Int_Tables_number       1
_symmetry_cell_setting            triclinic
loop_
_symmetry_equiv_pos_as_xyz
  x,y,z
_cell_length_a                    36.0299
_cell_length_b                    36.0299
_cell_length_c                    18.6877
_cell_angle_alpha                 90.0
_cell_angle_beta                  90.0
_cell_angle_gamma                 120.0
loop_
_atom_site_label
_atom_site_type_symbol
_atom_site_fract_x
_atom_site_fract_y
_atom_site_fract_z
V1    V   0.00000  0.50000  0.00000
V2    V   0.50000  0.00000  0.00000
V3    V   0.50000  0.50000  0.00000
EC1    EC   0.25001  0.50003  0.23258
EC2    EC   0.25001  0.50003  0.76742
EC3    EC   0.25001  0.74998  0.23258
EC4    EC   0.25001  0.74998  0.76742
EC5    EC   0.25002  0.50003  0.23258
EC6    EC   0.25002  0.50003  0.76742
EC7    EC   0.25002  0.74999  0.23258
EC8    EC   0.25002  0.74999  0.76742
EC9    EC   0.49997  0.74998  0.23258
EC10   EC   0.49997  0.74998  0.76742
EC11   EC   0.49997  0.74999  0.23258
EC12   EC   0.49997  0.74999  0.76742
EC13   EC   0.50003  0.25001  0.23258
EC14   EC   0.50003  0.25001  0.76742
EC15   EC   0.50003  0.25002  0.23258
EC16   EC   0.50003  0.25002  0.76742
EC17   EC   0.74998  0.25001  0.23258
EC18   EC   0.74998  0.25001  0.76742
EC19   EC   0.74998  0.49997  0.23258
EC20   EC   0.74998  0.49997  0.76742
EC21   EC   0.74999  0.25002  0.23258
EC22   EC   0.74999  0.25002  0.76742
EC23   EC   0.74999  0.49997  0.23258
EC24   EC   0.74999  0.49997  0.76742
E1    E   0.12501  0.50002  0.11629
E2    E   0.12501  0.50002  0.88371
E3    E   0.12501  0.62499  0.11629
E4    E   0.12501  0.62499  0.88371
E5    E   0.25001  0.50003  0.50000
E6    E   0.25001  0.74998  0.50000
E7    E   0.25002  0.50003  0.50000
E8    E   0.25002  0.74999  0.50000
E9    E   0.37501  0.50002  0.11629
E10   E   0.37501  0.50002  0.88371
E11   E   0.37501  0.87499  0.11629
E12   E   0.37501  0.87499  0.88371
E13   E   0.49997  0.74998  0.50000
E14   E   0.49997  0.74999  0.50000
E15   E   0.49998  0.62499  0.11629
E16   E   0.49998  0.62499  0.88371
E17   E   0.49998  0.87499  0.11629
E18   E   0.49998  0.87499  0.88371
E19   E   0.50002  0.12501  0.11629
E20   E   0.50002  0.12501  0.88371
E21   E   0.50002  0.37501  0.11629
E22   E   0.50002  0.37501  0.88371
E23   E   0.50003  0.25001  0.50000
E24   E   0.50003  0.25002  0.50000
E25   E   0.62499  0.12501  0.11629
E26   E   0.62499  0.12501  0.88371
E27   E   0.62499  0.49998  0.11629
E28   E   0.62499  0.49998  0.88371
E29   E   0.74998  0.25001  0.50000
E30   E   0.74998  0.49997  0.50000
E31   E   0.74999  0.25002  0.50000
E32   E   0.74999  0.49997  0.50000
E33   E   0.87499  0.37501  0.11629
E34   E   0.87499  0.37501  0.88371
E35   E   0.87499  0.49998  0.11629
E36   E   0.87499  0.49998  0.88371
loop_
