data_xlz_P6/mmm  hall_number: 485, V_con: 8, EC_con: 3
_audit_creation_date              2025-03-06
_audit_creation_method            'MOFbuilder_1.0'
_symmetry_space_group_name_H-M    'P1'
_symmetry_Int_Tables_number       1
_symmetry_cell_setting            triclinic
loop_
_symmetry_equiv_pos_as_xyz
  x,y,z
_cell_length_a                    49.5005
_cell_length_b                    49.5005
_cell_length_c                    13.5062
_cell_angle_alpha                 90.0
_cell_angle_beta                  90.0
_cell_angle_gamma                 120.0
loop_
_atom_site_label
_atom_site_type_symbol
_atom_site_fract_x
_atom_site_fract_y
_atom_site_fract_z
V1    V   0.00000  0.50000  0.50000
V2    V   0.50000  0.00000  0.50000
V3    V   0.50000  0.50000  0.50000
EC1    EC   0.14832  0.49866  0.00000
EC2    EC   0.14832  0.64966  0.00000
EC3    EC   0.35034  0.49866  0.00000
EC4    EC   0.35034  0.85168  0.00000
EC5    EC   0.49866  0.14832  0.00000
EC6    EC   0.49866  0.35034  0.00000
EC7    EC   0.50134  0.64966  0.00000
EC8    EC   0.50134  0.85168  0.00000
EC9    EC   0.64966  0.14832  0.00000
EC10   EC   0.64966  0.50134  0.00000
EC11   EC   0.85168  0.35034  0.00000
EC12   EC   0.85168  0.50134  0.00000
E1    E   0.07416  0.49933  0.25000
E2    E   0.07416  0.49933  0.75000
E3    E   0.07416  0.57483  0.25000
E4    E   0.07416  0.57483  0.75000
E5    E   0.24933  0.49866  0.00000
E6    E   0.24933  0.75067  0.00000
E7    E   0.42517  0.49933  0.25000
E8    E   0.42517  0.49933  0.75000
E9    E   0.42517  0.92584  0.25000
E10   E   0.42517  0.92584  0.75000
E11   E   0.49866  0.24933  0.00000
E12   E   0.49933  0.07416  0.25000
E13   E   0.49933  0.07416  0.75000
E14   E   0.49933  0.42517  0.25000
E15   E   0.49933  0.42517  0.75000
E16   E   0.50067  0.57483  0.25000
E17   E   0.50067  0.57483  0.75000
E18   E   0.50067  0.92584  0.25000
E19   E   0.50067  0.92584  0.75000
E20   E   0.50134  0.75067  0.00000
E21   E   0.57483  0.07416  0.25000
E22   E   0.57483  0.07416  0.75000
E23   E   0.57483  0.50067  0.25000
E24   E   0.57483  0.50067  0.75000
E25   E   0.75067  0.24933  0.00000
E26   E   0.75067  0.50134  0.00000
E27   E   0.92584  0.42517  0.25000
E28   E   0.92584  0.42517  0.75000
E29   E   0.92584  0.50067  0.25000
E30   E   0.92584  0.50067  0.75000
loop_
