data_ycr_Pn-3m:2  hall_number: 522, V_con: 4, EC_con: 3
_audit_creation_date              2025-03-06
_audit_creation_method            'MOFbuilder_1.0'
_symmetry_space_group_name_H-M    'P1'
_symmetry_Int_Tables_number       1
_symmetry_cell_setting            triclinic
loop_
_symmetry_equiv_pos_as_xyz
  x,y,z
_cell_length_a                    78.4624
_cell_length_b                    78.4624
_cell_length_c                    78.4624
_cell_angle_alpha                 90.0
_cell_angle_beta                  90.0
_cell_angle_gamma                 90.0
loop_
_atom_site_label
_atom_site_type_symbol
_atom_site_fract_x
_atom_site_fract_y
_atom_site_fract_z
V1    V   0.18744  0.18744  0.73788
V2    V   0.18744  0.31256  0.76212
V3    V   0.18744  0.73788  0.18744
V4    V   0.18744  0.76212  0.31256
V5    V   0.23788  0.68744  0.81256
V6    V   0.23788  0.81256  0.68744
V7    V   0.26212  0.68744  0.68744
V8    V   0.26212  0.81256  0.81256
V9    V   0.31256  0.18744  0.76212
V10   V   0.31256  0.31256  0.73788
V11   V   0.31256  0.73788  0.31256
V12   V   0.31256  0.76212  0.18744
V13   V   0.68744  0.23788  0.81256
V14   V   0.68744  0.26212  0.68744
V15   V   0.68744  0.68744  0.26212
V16   V   0.68744  0.81256  0.23788
V17   V   0.73788  0.18744  0.18744
V18   V   0.73788  0.31256  0.31256
V19   V   0.76212  0.18744  0.31256
V20   V   0.76212  0.31256  0.18744
V21   V   0.81256  0.23788  0.68744
V22   V   0.81256  0.26212  0.81256
V23   V   0.81256  0.68744  0.23788
V24   V   0.81256  0.81256  0.26212
EC1    EC   0.06249  0.19698  0.71465
EC2    EC   0.06249  0.30302  0.78535
EC3    EC   0.06249  0.71465  0.19698
EC4    EC   0.06249  0.78535  0.30302
EC5    EC   0.19698  0.06249  0.71465
EC6    EC   0.19698  0.43751  0.78535
EC7    EC   0.19698  0.71465  0.06249
EC8    EC   0.19698  0.78535  0.43751
EC9    EC   0.21465  0.56249  0.80302
EC10   EC   0.21465  0.69698  0.93751
EC11   EC   0.21465  0.80302  0.56249
EC12   EC   0.21465  0.93751  0.69698
EC13   EC   0.28535  0.56249  0.69698
EC14   EC   0.28535  0.69698  0.56249
EC15   EC   0.28535  0.80302  0.93751
EC16   EC   0.28535  0.93751  0.80302
EC17   EC   0.30302  0.06249  0.78535
EC18   EC   0.30302  0.43751  0.71465
EC19   EC   0.30302  0.71465  0.43751
EC20   EC   0.30302  0.78535  0.06249
EC21   EC   0.43751  0.19698  0.78535
EC22   EC   0.43751  0.30302  0.71465
EC23   EC   0.43751  0.71465  0.30302
EC24   EC   0.43751  0.78535  0.19698
EC25   EC   0.56249  0.21465  0.80302
EC26   EC   0.56249  0.28535  0.69698
EC27   EC   0.56249  0.69698  0.28535
EC28   EC   0.56249  0.80302  0.21465
EC29   EC   0.69698  0.21465  0.93751
EC30   EC   0.69698  0.28535  0.56249
EC31   EC   0.69698  0.56249  0.28535
EC32   EC   0.69698  0.93751  0.21465
EC33   EC   0.71465  0.06249  0.19698
EC34   EC   0.71465  0.19698  0.06249
EC35   EC   0.71465  0.30302  0.43751
EC36   EC   0.71465  0.43751  0.30302
EC37   EC   0.78535  0.06249  0.30302
EC38   EC   0.78535  0.19698  0.43751
EC39   EC   0.78535  0.30302  0.06249
EC40   EC   0.78535  0.43751  0.19698
EC41   EC   0.80302  0.21465  0.56249
EC42   EC   0.80302  0.28535  0.93751
EC43   EC   0.80302  0.56249  0.21465
EC44   EC   0.80302  0.93751  0.28535
EC45   EC   0.93751  0.21465  0.69698
EC46   EC   0.93751  0.28535  0.80302
EC47   EC   0.93751  0.69698  0.21465
EC48   EC   0.93751  0.80302  0.28535
E1    E   0.00000  0.20581  0.70581
E2    E   0.00000  0.20581  0.70581
E3    E   0.00000  0.29419  0.79419
E4    E   0.00000  0.29419  0.79419
E5    E   0.00000  0.70581  0.20581
E6    E   0.00000  0.70581  0.20581
E7    E   0.00000  0.79419  0.29419
E8    E   0.00000  0.79419  0.29419
E9    E   0.06249  0.25000  0.75000
E10   E   0.06249  0.75000  0.25000
E11   E   0.12496  0.19221  0.72627
E12   E   0.12496  0.30779  0.77373
E13   E   0.12496  0.72627  0.19221
E14   E   0.12496  0.77373  0.30779
E15   E   0.18744  0.25000  0.75000
E16   E   0.18744  0.75000  0.25000
E17   E   0.19221  0.12496  0.72627
E18   E   0.19221  0.37504  0.77373
E19   E   0.19221  0.72627  0.12496
E20   E   0.19221  0.77373  0.37504
E21   E   0.20581  0.00000  0.70581
E22   E   0.20581  0.50000  0.79419
E23   E   0.20581  0.70581  0.00000
E24   E   0.20581  0.79419  0.50000
E25   E   0.20581  0.00000  0.70581
E26   E   0.20581  0.50000  0.79419
E27   E   0.20581  0.70581  0.00000
E28   E   0.20581  0.79419  0.50000
E29   E   0.22627  0.62496  0.80779
E30   E   0.22627  0.69221  0.87504
E31   E   0.22627  0.80779  0.62496
E32   E   0.22627  0.87504  0.69221
E33   E   0.25000  0.06249  0.75000
E34   E   0.25000  0.18744  0.75000
E35   E   0.25000  0.31256  0.75000
E36   E   0.25000  0.43751  0.75000
E37   E   0.25000  0.56249  0.75000
E38   E   0.25000  0.68744  0.75000
E39   E   0.25000  0.75000  0.06249
E40   E   0.25000  0.75000  0.18744
E41   E   0.25000  0.75000  0.31256
E42   E   0.25000  0.75000  0.43751
E43   E   0.25000  0.75000  0.56249
E44   E   0.25000  0.75000  0.68744
E45   E   0.25000  0.75000  0.81256
E46   E   0.25000  0.75000  0.93751
E47   E   0.25000  0.81256  0.75000
E48   E   0.25000  0.93751  0.75000
E49   E   0.27373  0.62496  0.69221
E50   E   0.27373  0.69221  0.62496
E51   E   0.27373  0.80779  0.87504
E52   E   0.27373  0.87504  0.80779
E53   E   0.29419  0.00000  0.79419
E54   E   0.29419  0.50000  0.70581
E55   E   0.29419  0.70581  0.50000
E56   E   0.29419  0.79419  0.00000
E57   E   0.29419  0.00000  0.79419
E58   E   0.29419  0.50000  0.70581
E59   E   0.29419  0.70581  0.50000
E60   E   0.29419  0.79419  0.00000
E61   E   0.30779  0.12496  0.77373
E62   E   0.30779  0.37504  0.72627
E63   E   0.30779  0.72627  0.37504
E64   E   0.30779  0.77373  0.12496
E65   E   0.31256  0.25000  0.75000
E66   E   0.31256  0.75000  0.25000
E67   E   0.37504  0.19221  0.77373
E68   E   0.37504  0.30779  0.72627
E69   E   0.37504  0.72627  0.30779
E70   E   0.37504  0.77373  0.19221
E71   E   0.43751  0.25000  0.75000
E72   E   0.43751  0.75000  0.25000
E73   E   0.50000  0.20581  0.79419
E74   E   0.50000  0.20581  0.79419
E75   E   0.50000  0.29419  0.70581
E76   E   0.50000  0.29419  0.70581
E77   E   0.50000  0.70581  0.29419
E78   E   0.50000  0.70581  0.29419
E79   E   0.50000  0.79419  0.20581
E80   E   0.50000  0.79419  0.20581
E81   E   0.56249  0.25000  0.75000
E82   E   0.56249  0.75000  0.25000
E83   E   0.62496  0.22627  0.80779
E84   E   0.62496  0.27373  0.69221
E85   E   0.62496  0.69221  0.27373
E86   E   0.62496  0.80779  0.22627
E87   E   0.68744  0.25000  0.75000
E88   E   0.68744  0.75000  0.25000
E89   E   0.69221  0.22627  0.87504
E90   E   0.69221  0.27373  0.62496
E91   E   0.69221  0.62496  0.27373
E92   E   0.69221  0.87504  0.22627
E93   E   0.70581  0.00000  0.20581
E94   E   0.70581  0.00000  0.20581
E95   E   0.70581  0.20581  0.00000
E96   E   0.70581  0.20581  0.00000
E97   E   0.70581  0.29419  0.50000
E98   E   0.70581  0.29419  0.50000
E99   E   0.70581  0.50000  0.29419
E100  E   0.70581  0.50000  0.29419
E101  E   0.72627  0.12496  0.19221
E102  E   0.72627  0.19221  0.12496
E103  E   0.72627  0.30779  0.37504
E104  E   0.72627  0.37504  0.30779
E105  E   0.75000  0.06249  0.25000
E106  E   0.75000  0.18744  0.25000
E107  E   0.75000  0.25000  0.06249
E108  E   0.75000  0.25000  0.18744
E109  E   0.75000  0.25000  0.31256
E110  E   0.75000  0.25000  0.43751
E111  E   0.75000  0.25000  0.56249
E112  E   0.75000  0.25000  0.68744
E113  E   0.75000  0.25000  0.81256
E114  E   0.75000  0.25000  0.93751
E115  E   0.75000  0.31256  0.25000
E116  E   0.75000  0.43751  0.25000
E117  E   0.75000  0.56249  0.25000
E118  E   0.75000  0.68744  0.25000
E119  E   0.75000  0.81256  0.25000
E120  E   0.75000  0.93751  0.25000
E121  E   0.77373  0.12496  0.30779
E122  E   0.77373  0.19221  0.37504
E123  E   0.77373  0.30779  0.12496
E124  E   0.77373  0.37504  0.19221
E125  E   0.79419  0.00000  0.29419
E126  E   0.79419  0.00000  0.29419
E127  E   0.79419  0.20581  0.50000
E128  E   0.79419  0.20581  0.50000
E129  E   0.79419  0.29419  0.00000
E130  E   0.79419  0.29419  0.00000
E131  E   0.79419  0.50000  0.20581
E132  E   0.79419  0.50000  0.20581
E133  E   0.80779  0.22627  0.62496
E134  E   0.80779  0.27373  0.87504
E135  E   0.80779  0.62496  0.22627
E136  E   0.80779  0.87504  0.27373
E137  E   0.81256  0.25000  0.75000
E138  E   0.81256  0.75000  0.25000
E139  E   0.87504  0.22627  0.69221
E140  E   0.87504  0.27373  0.80779
E141  E   0.87504  0.69221  0.22627
E142  E   0.87504  0.80779  0.27373
E143  E   0.93751  0.25000  0.75000
E144  E   0.93751  0.75000  0.25000
loop_
