data_ydq_Fd-3m:2  hall_number: 526, V_con: 6, EC_con: 3
_audit_creation_date              2025-03-06
_audit_creation_method            'MOFbuilder_1.0'
_symmetry_space_group_name_H-M    'P1'
_symmetry_Int_Tables_number       1
_symmetry_cell_setting            triclinic
loop_
_symmetry_equiv_pos_as_xyz
  x,y,z
_cell_length_a                    65.554
_cell_length_b                    65.554
_cell_length_c                    65.554
_cell_angle_alpha                 90.0
_cell_angle_beta                  90.0
_cell_angle_gamma                 90.0
loop_
_atom_site_label
_atom_site_type_symbol
_atom_site_fract_x
_atom_site_fract_y
_atom_site_fract_z
V1    V   0.05109  0.37500  0.37500
V2    V   0.05109  0.87500  0.87500
V3    V   0.12500  0.12500  0.30109
V4    V   0.12500  0.12500  0.94891
V5    V   0.12500  0.30109  0.12500
V6    V   0.12500  0.44891  0.62500
V7    V   0.12500  0.62500  0.44891
V8    V   0.12500  0.62500  0.80109
V9    V   0.12500  0.80109  0.62500
V10   V   0.12500  0.94891  0.12500
V11   V   0.19891  0.37500  0.87500
V12   V   0.19891  0.87500  0.37500
V13   V   0.30109  0.12500  0.12500
V14   V   0.30109  0.62500  0.62500
V15   V   0.37500  0.05109  0.37500
V16   V   0.37500  0.19891  0.87500
V17   V   0.37500  0.37500  0.05109
V18   V   0.37500  0.37500  0.69891
V19   V   0.37500  0.55109  0.87500
V20   V   0.37500  0.69891  0.37500
V21   V   0.37500  0.87500  0.19891
V22   V   0.37500  0.87500  0.55109
V23   V   0.44891  0.12500  0.62500
V24   V   0.44891  0.62500  0.12500
V25   V   0.55109  0.37500  0.87500
V26   V   0.55109  0.87500  0.37500
V27   V   0.62500  0.12500  0.44891
V28   V   0.62500  0.12500  0.80109
V29   V   0.62500  0.30109  0.62500
V30   V   0.62500  0.44891  0.12500
V31   V   0.62500  0.62500  0.30109
V32   V   0.62500  0.62500  0.94891
V33   V   0.62500  0.80109  0.12500
V34   V   0.62500  0.94891  0.62500
V35   V   0.69891  0.37500  0.37500
V36   V   0.69891  0.87500  0.87500
V37   V   0.80109  0.12500  0.62500
V38   V   0.80109  0.62500  0.12500
V39   V   0.87500  0.05109  0.87500
V40   V   0.87500  0.19891  0.37500
V41   V   0.87500  0.37500  0.19891
V42   V   0.87500  0.37500  0.55109
V43   V   0.87500  0.55109  0.37500
V44   V   0.87500  0.69891  0.87500
V45   V   0.87500  0.87500  0.05109
V46   V   0.87500  0.87500  0.69891
V47   V   0.94891  0.12500  0.12500
V48   V   0.94891  0.62500  0.62500
EC1    EC   0.02219  0.02219  0.90275
EC2    EC   0.02219  0.22781  0.34725
EC3    EC   0.02219  0.34725  0.22781
EC4    EC   0.02219  0.40275  0.52219
EC5    EC   0.02219  0.52219  0.40275
EC6    EC   0.02219  0.72781  0.84725
EC7    EC   0.02219  0.84725  0.72781
EC8    EC   0.02219  0.90275  0.02219
EC9    EC   0.09725  0.27219  0.27219
EC10   EC   0.09725  0.47781  0.47781
EC11   EC   0.09725  0.77219  0.77219
EC12   EC   0.09725  0.97781  0.97781
EC13   EC   0.15275  0.27219  0.97781
EC14   EC   0.15275  0.47781  0.77219
EC15   EC   0.15275  0.77219  0.47781
EC16   EC   0.15275  0.97781  0.27219
EC17   EC   0.22781  0.02219  0.34725
EC18   EC   0.22781  0.22781  0.90275
EC19   EC   0.22781  0.34725  0.02219
EC20   EC   0.22781  0.40275  0.72781
EC21   EC   0.22781  0.52219  0.84725
EC22   EC   0.22781  0.72781  0.40275
EC23   EC   0.22781  0.84725  0.52219
EC24   EC   0.22781  0.90275  0.22781
EC25   EC   0.27219  0.09725  0.27219
EC26   EC   0.27219  0.15275  0.97781
EC27   EC   0.27219  0.27219  0.09725
EC28   EC   0.27219  0.47781  0.65275
EC29   EC   0.27219  0.59725  0.77219
EC30   EC   0.27219  0.65275  0.47781
EC31   EC   0.27219  0.77219  0.59725
EC32   EC   0.27219  0.97781  0.15275
EC33   EC   0.34725  0.02219  0.22781
EC34   EC   0.34725  0.22781  0.02219
EC35   EC   0.34725  0.52219  0.72781
EC36   EC   0.34725  0.72781  0.52219
EC37   EC   0.40275  0.02219  0.52219
EC38   EC   0.40275  0.22781  0.72781
EC39   EC   0.40275  0.52219  0.02219
EC40   EC   0.40275  0.72781  0.22781
EC41   EC   0.47781  0.09725  0.47781
EC42   EC   0.47781  0.15275  0.77219
EC43   EC   0.47781  0.27219  0.65275
EC44   EC   0.47781  0.47781  0.09725
EC45   EC   0.47781  0.59725  0.97781
EC46   EC   0.47781  0.65275  0.27219
EC47   EC   0.47781  0.77219  0.15275
EC48   EC   0.47781  0.97781  0.59725
EC49   EC   0.52219  0.02219  0.40275
EC50   EC   0.52219  0.22781  0.84725
EC51   EC   0.52219  0.34725  0.72781
EC52   EC   0.52219  0.40275  0.02219
EC53   EC   0.52219  0.52219  0.90275
EC54   EC   0.52219  0.72781  0.34725
EC55   EC   0.52219  0.84725  0.22781
EC56   EC   0.52219  0.90275  0.52219
EC57   EC   0.59725  0.27219  0.77219
EC58   EC   0.59725  0.47781  0.97781
EC59   EC   0.59725  0.77219  0.27219
EC60   EC   0.59725  0.97781  0.47781
EC61   EC   0.65275  0.27219  0.47781
EC62   EC   0.65275  0.47781  0.27219
EC63   EC   0.65275  0.77219  0.97781
EC64   EC   0.65275  0.97781  0.77219
EC65   EC   0.72781  0.02219  0.84725
EC66   EC   0.72781  0.22781  0.40275
EC67   EC   0.72781  0.34725  0.52219
EC68   EC   0.72781  0.40275  0.22781
EC69   EC   0.72781  0.52219  0.34725
EC70   EC   0.72781  0.72781  0.90275
EC71   EC   0.72781  0.84725  0.02219
EC72   EC   0.72781  0.90275  0.72781
EC73   EC   0.77219  0.09725  0.77219
EC74   EC   0.77219  0.15275  0.47781
EC75   EC   0.77219  0.27219  0.59725
EC76   EC   0.77219  0.47781  0.15275
EC77   EC   0.77219  0.59725  0.27219
EC78   EC   0.77219  0.65275  0.97781
EC79   EC   0.77219  0.77219  0.09725
EC80   EC   0.77219  0.97781  0.65275
EC81   EC   0.84725  0.02219  0.72781
EC82   EC   0.84725  0.22781  0.52219
EC83   EC   0.84725  0.52219  0.22781
EC84   EC   0.84725  0.72781  0.02219
EC85   EC   0.90275  0.02219  0.02219
EC86   EC   0.90275  0.22781  0.22781
EC87   EC   0.90275  0.52219  0.52219
EC88   EC   0.90275  0.72781  0.72781
EC89   EC   0.97781  0.09725  0.97781
EC90   EC   0.97781  0.15275  0.27219
EC91   EC   0.97781  0.27219  0.15275
EC92   EC   0.97781  0.47781  0.59725
EC93   EC   0.97781  0.59725  0.47781
EC94   EC   0.97781  0.65275  0.77219
EC95   EC   0.97781  0.77219  0.65275
EC96   EC   0.97781  0.97781  0.09725
E1    E   0.03664  0.30140  0.36113
E2    E   0.03664  0.36113  0.30140
E3    E   0.03664  0.38887  0.44860
E4    E   0.03664  0.44860  0.38887
E5    E   0.03664  0.80140  0.86113
E6    E   0.03664  0.86113  0.80140
E7    E   0.03664  0.88887  0.94860
E8    E   0.03664  0.94860  0.88887
E9    E   0.05140  0.11113  0.96336
E10   E   0.05140  0.13887  0.28664
E11   E   0.05140  0.28664  0.13887
E12   E   0.05140  0.46336  0.61113
E13   E   0.05140  0.61113  0.46336
E14   E   0.05140  0.63887  0.78664
E15   E   0.05140  0.78664  0.63887
E16   E   0.05140  0.96336  0.11113
E17   E   0.07360  0.07360  0.92583
E18   E   0.07360  0.17640  0.32417
E19   E   0.07360  0.32417  0.17640
E20   E   0.07360  0.42583  0.57360
E21   E   0.07360  0.57360  0.42583
E22   E   0.07360  0.67640  0.82417
E23   E   0.07360  0.82417  0.67640
E24   E   0.07360  0.92583  0.07360
E25   E   0.07417  0.32360  0.32360
E26   E   0.07417  0.42640  0.42640
E27   E   0.07417  0.82360  0.82360
E28   E   0.07417  0.92640  0.92640
E29   E   0.11113  0.05140  0.96336
E30   E   0.11113  0.19860  0.28664
E31   E   0.11113  0.28664  0.19860
E32   E   0.11113  0.46336  0.55140
E33   E   0.11113  0.55140  0.46336
E34   E   0.11113  0.69860  0.78664
E35   E   0.11113  0.78664  0.69860
E36   E   0.11113  0.96336  0.05140
E37   E   0.13887  0.05140  0.28664
E38   E   0.13887  0.19860  0.96336
E39   E   0.13887  0.28664  0.05140
E40   E   0.13887  0.46336  0.69860
E41   E   0.13887  0.55140  0.78664
E42   E   0.13887  0.69860  0.46336
E43   E   0.13887  0.78664  0.55140
E44   E   0.13887  0.96336  0.19860
E45   E   0.17583  0.32360  0.92640
E46   E   0.17583  0.42640  0.82360
E47   E   0.17583  0.82360  0.42640
E48   E   0.17583  0.92640  0.32360
E49   E   0.17640  0.07360  0.32417
E50   E   0.17640  0.17640  0.92583
E51   E   0.17640  0.32417  0.07360
E52   E   0.17640  0.42583  0.67640
E53   E   0.17640  0.57360  0.82417
E54   E   0.17640  0.67640  0.42583
E55   E   0.17640  0.82417  0.57360
E56   E   0.17640  0.92583  0.17640
E57   E   0.19860  0.11113  0.28664
E58   E   0.19860  0.13887  0.96336
E59   E   0.19860  0.28664  0.11113
E60   E   0.19860  0.46336  0.63887
E61   E   0.19860  0.61113  0.78664
E62   E   0.19860  0.63887  0.46336
E63   E   0.19860  0.78664  0.61113
E64   E   0.19860  0.96336  0.13887
E65   E   0.21336  0.30140  0.88887
E66   E   0.21336  0.36113  0.94860
E67   E   0.21336  0.38887  0.80140
E68   E   0.21336  0.44860  0.86113
E69   E   0.21336  0.80140  0.38887
E70   E   0.21336  0.86113  0.44860
E71   E   0.21336  0.88887  0.30140
E72   E   0.21336  0.94860  0.36113
E73   E   0.28664  0.05140  0.13887
E74   E   0.28664  0.11113  0.19860
E75   E   0.28664  0.13887  0.05140
E76   E   0.28664  0.19860  0.11113
E77   E   0.28664  0.55140  0.63887
E78   E   0.28664  0.61113  0.69860
E79   E   0.28664  0.63887  0.55140
E80   E   0.28664  0.69860  0.61113
E81   E   0.30140  0.03664  0.36113
E82   E   0.30140  0.21336  0.88887
E83   E   0.30140  0.36113  0.03664
E84   E   0.30140  0.38887  0.71336
E85   E   0.30140  0.53664  0.86113
E86   E   0.30140  0.71336  0.38887
E87   E   0.30140  0.86113  0.53664
E88   E   0.30140  0.88887  0.21336
E89   E   0.32360  0.07417  0.32360
E90   E   0.32360  0.17583  0.92640
E91   E   0.32360  0.32360  0.07417
E92   E   0.32360  0.42640  0.67583
E93   E   0.32360  0.57417  0.82360
E94   E   0.32360  0.67583  0.42640
E95   E   0.32360  0.82360  0.57417
E96   E   0.32360  0.92640  0.17583
E97   E   0.32417  0.07360  0.17640
E98   E   0.32417  0.17640  0.07360
E99   E   0.32417  0.57360  0.67640
E100  E   0.32417  0.67640  0.57360
E101  E   0.36113  0.03664  0.30140
E102  E   0.36113  0.21336  0.94860
E103  E   0.36113  0.30140  0.03664
E104  E   0.36113  0.44860  0.71336
E105  E   0.36113  0.53664  0.80140
E106  E   0.36113  0.71336  0.44860
E107  E   0.36113  0.80140  0.53664
E108  E   0.36113  0.94860  0.21336
E109  E   0.38887  0.03664  0.44860
E110  E   0.38887  0.21336  0.80140
E111  E   0.38887  0.30140  0.71336
E112  E   0.38887  0.44860  0.03664
E113  E   0.38887  0.53664  0.94860
E114  E   0.38887  0.71336  0.30140
E115  E   0.38887  0.80140  0.21336
E116  E   0.38887  0.94860  0.53664
E117  E   0.42583  0.07360  0.57360
E118  E   0.42583  0.17640  0.67640
E119  E   0.42583  0.57360  0.07360
E120  E   0.42583  0.67640  0.17640
E121  E   0.42640  0.07417  0.42640
E122  E   0.42640  0.17583  0.82360
E123  E   0.42640  0.32360  0.67583
E124  E   0.42640  0.42640  0.07417
E125  E   0.42640  0.57417  0.92640
E126  E   0.42640  0.67583  0.32360
E127  E   0.42640  0.82360  0.17583
E128  E   0.42640  0.92640  0.57417
E129  E   0.44860  0.03664  0.38887
E130  E   0.44860  0.21336  0.86113
E131  E   0.44860  0.36113  0.71336
E132  E   0.44860  0.38887  0.03664
E133  E   0.44860  0.53664  0.88887
E134  E   0.44860  0.71336  0.36113
E135  E   0.44860  0.86113  0.21336
E136  E   0.44860  0.88887  0.53664
E137  E   0.46336  0.05140  0.61113
E138  E   0.46336  0.11113  0.55140
E139  E   0.46336  0.13887  0.69860
E140  E   0.46336  0.19860  0.63887
E141  E   0.46336  0.55140  0.11113
E142  E   0.46336  0.61113  0.05140
E143  E   0.46336  0.63887  0.19860
E144  E   0.46336  0.69860  0.13887
E145  E   0.53664  0.30140  0.86113
E146  E   0.53664  0.36113  0.80140
E147  E   0.53664  0.38887  0.94860
E148  E   0.53664  0.44860  0.88887
E149  E   0.53664  0.80140  0.36113
E150  E   0.53664  0.86113  0.30140
E151  E   0.53664  0.88887  0.44860
E152  E   0.53664  0.94860  0.38887
E153  E   0.55140  0.11113  0.46336
E154  E   0.55140  0.13887  0.78664
E155  E   0.55140  0.28664  0.63887
E156  E   0.55140  0.46336  0.11113
E157  E   0.55140  0.61113  0.96336
E158  E   0.55140  0.63887  0.28664
E159  E   0.55140  0.78664  0.13887
E160  E   0.55140  0.96336  0.61113
E161  E   0.57360  0.07360  0.42583
E162  E   0.57360  0.17640  0.82417
E163  E   0.57360  0.32417  0.67640
E164  E   0.57360  0.42583  0.07360
E165  E   0.57360  0.57360  0.92583
E166  E   0.57360  0.67640  0.32417
E167  E   0.57360  0.82417  0.17640
E168  E   0.57360  0.92583  0.57360
E169  E   0.57417  0.32360  0.82360
E170  E   0.57417  0.42640  0.92640
E171  E   0.57417  0.82360  0.32360
E172  E   0.57417  0.92640  0.42640
E173  E   0.61113  0.05140  0.46336
E174  E   0.61113  0.19860  0.78664
E175  E   0.61113  0.28664  0.69860
E176  E   0.61113  0.46336  0.05140
E177  E   0.61113  0.55140  0.96336
E178  E   0.61113  0.69860  0.28664
E179  E   0.61113  0.78664  0.19860
E180  E   0.61113  0.96336  0.55140
E181  E   0.63887  0.05140  0.78664
E182  E   0.63887  0.19860  0.46336
E183  E   0.63887  0.28664  0.55140
E184  E   0.63887  0.46336  0.19860
E185  E   0.63887  0.55140  0.28664
E186  E   0.63887  0.69860  0.96336
E187  E   0.63887  0.78664  0.05140
E188  E   0.63887  0.96336  0.69860
E189  E   0.67583  0.32360  0.42640
E190  E   0.67583  0.42640  0.32360
E191  E   0.67583  0.82360  0.92640
E192  E   0.67583  0.92640  0.82360
E193  E   0.67640  0.07360  0.82417
E194  E   0.67640  0.17640  0.42583
E195  E   0.67640  0.32417  0.57360
E196  E   0.67640  0.42583  0.17640
E197  E   0.67640  0.57360  0.32417
E198  E   0.67640  0.67640  0.92583
E199  E   0.67640  0.82417  0.07360
E200  E   0.67640  0.92583  0.67640
E201  E   0.69860  0.11113  0.78664
E202  E   0.69860  0.13887  0.46336
E203  E   0.69860  0.28664  0.61113
E204  E   0.69860  0.46336  0.13887
E205  E   0.69860  0.61113  0.28664
E206  E   0.69860  0.63887  0.96336
E207  E   0.69860  0.78664  0.11113
E208  E   0.69860  0.96336  0.63887
E209  E   0.71336  0.30140  0.38887
E210  E   0.71336  0.36113  0.44860
E211  E   0.71336  0.38887  0.30140
E212  E   0.71336  0.44860  0.36113
E213  E   0.71336  0.80140  0.88887
E214  E   0.71336  0.86113  0.94860
E215  E   0.71336  0.88887  0.80140
E216  E   0.71336  0.94860  0.86113
E217  E   0.78664  0.05140  0.63887
E218  E   0.78664  0.11113  0.69860
E219  E   0.78664  0.13887  0.55140
E220  E   0.78664  0.19860  0.61113
E221  E   0.78664  0.55140  0.13887
E222  E   0.78664  0.61113  0.19860
E223  E   0.78664  0.63887  0.05140
E224  E   0.78664  0.69860  0.11113
E225  E   0.80140  0.03664  0.86113
E226  E   0.80140  0.21336  0.38887
E227  E   0.80140  0.36113  0.53664
E228  E   0.80140  0.38887  0.21336
E229  E   0.80140  0.53664  0.36113
E230  E   0.80140  0.71336  0.88887
E231  E   0.80140  0.86113  0.03664
E232  E   0.80140  0.88887  0.71336
E233  E   0.82360  0.07417  0.82360
E234  E   0.82360  0.17583  0.42640
E235  E   0.82360  0.32360  0.57417
E236  E   0.82360  0.42640  0.17583
E237  E   0.82360  0.57417  0.32360
E238  E   0.82360  0.67583  0.92640
E239  E   0.82360  0.82360  0.07417
E240  E   0.82360  0.92640  0.67583
E241  E   0.82417  0.07360  0.67640
E242  E   0.82417  0.17640  0.57360
E243  E   0.82417  0.57360  0.17640
E244  E   0.82417  0.67640  0.07360
E245  E   0.86113  0.03664  0.80140
E246  E   0.86113  0.21336  0.44860
E247  E   0.86113  0.30140  0.53664
E248  E   0.86113  0.44860  0.21336
E249  E   0.86113  0.53664  0.30140
E250  E   0.86113  0.71336  0.94860
E251  E   0.86113  0.80140  0.03664
E252  E   0.86113  0.94860  0.71336
E253  E   0.88887  0.03664  0.94860
E254  E   0.88887  0.21336  0.30140
E255  E   0.88887  0.30140  0.21336
E256  E   0.88887  0.44860  0.53664
E257  E   0.88887  0.53664  0.44860
E258  E   0.88887  0.71336  0.80140
E259  E   0.88887  0.80140  0.71336
E260  E   0.88887  0.94860  0.03664
E261  E   0.92583  0.07360  0.07360
E262  E   0.92583  0.17640  0.17640
E263  E   0.92583  0.57360  0.57360
E264  E   0.92583  0.67640  0.67640
E265  E   0.92640  0.07417  0.92640
E266  E   0.92640  0.17583  0.32360
E267  E   0.92640  0.32360  0.17583
E268  E   0.92640  0.42640  0.57417
E269  E   0.92640  0.57417  0.42640
E270  E   0.92640  0.67583  0.82360
E271  E   0.92640  0.82360  0.67583
E272  E   0.92640  0.92640  0.07417
E273  E   0.94860  0.03664  0.88887
E274  E   0.94860  0.21336  0.36113
E275  E   0.94860  0.36113  0.21336
E276  E   0.94860  0.38887  0.53664
E277  E   0.94860  0.53664  0.38887
E278  E   0.94860  0.71336  0.86113
E279  E   0.94860  0.86113  0.71336
E280  E   0.94860  0.88887  0.03664
E281  E   0.96336  0.05140  0.11113
E282  E   0.96336  0.11113  0.05140
E283  E   0.96336  0.13887  0.19860
E284  E   0.96336  0.19860  0.13887
E285  E   0.96336  0.55140  0.61113
E286  E   0.96336  0.61113  0.55140
E287  E   0.96336  0.63887  0.69860
E288  E   0.96336  0.69860  0.63887
loop_
