data_yfp_I41/acd:2  hall_number: 429, V_con: 5
_audit_creation_date              2025-03-06
_audit_creation_method            'MOFbuilder_1.0'
_symmetry_space_group_name_H-M    'P1'
_symmetry_Int_Tables_number       1
_symmetry_cell_setting            triclinic
loop_
_symmetry_equiv_pos_as_xyz
  x,y,z
_cell_length_a                    42.5703
_cell_length_b                    42.5703
_cell_length_c                    22.956
_cell_angle_alpha                 90.0
_cell_angle_beta                  90.0
_cell_angle_gamma                 90.0
loop_
_atom_site_label
_atom_site_type_symbol
_atom_site_fract_x
_atom_site_fract_y
_atom_site_fract_z
V1    V   0.11490  0.01588  0.46581
V2    V   0.11490  0.48412  0.96581
V3    V   0.11490  0.51588  0.53419
V4    V   0.11490  0.98412  0.03419
V5    V   0.23412  0.13510  0.78419
V6    V   0.23412  0.36490  0.28419
V7    V   0.23412  0.63510  0.21581
V8    V   0.23412  0.86490  0.71581
V9    V   0.26588  0.13510  0.21581
V10   V   0.26588  0.36490  0.71581
V11   V   0.26588  0.63510  0.78419
V12   V   0.26588  0.86490  0.28419
V13   V   0.38510  0.01588  0.53419
V14   V   0.38510  0.48412  0.03419
V15   V   0.38510  0.51588  0.46581
V16   V   0.38510  0.98412  0.96581
V17   V   0.61490  0.01588  0.03419
V18   V   0.61490  0.48412  0.53419
V19   V   0.61490  0.51588  0.96581
V20   V   0.61490  0.98412  0.46581
V21   V   0.73412  0.13510  0.71581
V22   V   0.73412  0.36490  0.21581
V23   V   0.73412  0.63510  0.28419
V24   V   0.73412  0.86490  0.78419
V25   V   0.76588  0.13510  0.28419
V26   V   0.76588  0.36490  0.78419
V27   V   0.76588  0.63510  0.71581
V28   V   0.76588  0.86490  0.21581
V29   V   0.88510  0.01588  0.96581
V30   V   0.88510  0.48412  0.46581
V31   V   0.88510  0.51588  0.03419
V32   V   0.88510  0.98412  0.53419
E1    E   0.00000  0.00000  0.00000
E2    E   0.00000  0.00000  0.50000
E3    E   0.00000  0.50000  0.00000
E4    E   0.00000  0.50000  0.50000
E5    E   0.11490  0.00000  0.25000
E6    E   0.11490  0.50000  0.75000
E7    E   0.17451  0.05961  0.90919
E8    E   0.17451  0.44039  0.40919
E9    E   0.17451  0.55961  0.09081
E10   E   0.17451  0.94039  0.59081
E11   E   0.19039  0.05961  0.12500
E12   E   0.19039  0.05961  0.12500
E13   E   0.19039  0.07549  0.34081
E14   E   0.19039  0.42451  0.84081
E15   E   0.19039  0.44039  0.62500
E16   E   0.19039  0.55961  0.87500
E17   E   0.19039  0.55961  0.87500
E18   E   0.19039  0.57549  0.65919
E19   E   0.19039  0.92451  0.15919
E20   E   0.19039  0.94039  0.37500
E21   E   0.19039  0.94039  0.37500
E22   E   0.25000  0.13510  0.00000
E23   E   0.25000  0.25000  0.25000
E24   E   0.25000  0.25000  0.75000
E25   E   0.25000  0.36490  0.50000
E26   E   0.25000  0.63510  0.00000
E27   E   0.25000  0.75000  0.25000
E28   E   0.25000  0.75000  0.75000
E29   E   0.25000  0.86490  0.50000
E30   E   0.30961  0.05961  0.87500
E31   E   0.30961  0.05961  0.87500
E32   E   0.30961  0.07549  0.65919
E33   E   0.30961  0.42451  0.15919
E34   E   0.30961  0.44039  0.37500
E35   E   0.30961  0.55961  0.12500
E36   E   0.30961  0.55961  0.12500
E37   E   0.30961  0.57549  0.34081
E38   E   0.30961  0.92451  0.84081
E39   E   0.30961  0.94039  0.62500
E40   E   0.30961  0.94039  0.62500
E41   E   0.32549  0.05961  0.09081
E42   E   0.32549  0.44039  0.59081
E43   E   0.32549  0.55961  0.90919
E44   E   0.32549  0.94039  0.40919
E45   E   0.38510  0.00000  0.75000
E46   E   0.38510  0.50000  0.25000
E47   E   0.50000  0.00000  0.00000
E48   E   0.50000  0.00000  0.50000
E49   E   0.50000  0.50000  0.00000
E50   E   0.50000  0.50000  0.50000
E51   E   0.61490  0.00000  0.25000
E52   E   0.61490  0.50000  0.75000
E53   E   0.67451  0.05961  0.59081
E54   E   0.67451  0.44039  0.09081
E55   E   0.67451  0.55961  0.40919
E56   E   0.67451  0.94039  0.90919
E57   E   0.69039  0.05961  0.37500
E58   E   0.69039  0.07549  0.15919
E59   E   0.69039  0.42451  0.65919
E60   E   0.69039  0.44039  0.87500
E61   E   0.69039  0.55961  0.62500
E62   E   0.69039  0.57549  0.84081
E63   E   0.69039  0.92451  0.34081
E64   E   0.69039  0.94039  0.12500
E65   E   0.69039  0.05961  0.37500
E66   E   0.69039  0.44039  0.87500
E67   E   0.69039  0.55961  0.62500
E68   E   0.69039  0.94039  0.12500
E69   E   0.75000  0.13510  0.50000
E70   E   0.75000  0.25000  0.25000
E71   E   0.75000  0.25000  0.75000
E72   E   0.75000  0.36490  0.00000
E73   E   0.75000  0.63510  0.50000
E74   E   0.75000  0.75000  0.25000
E75   E   0.75000  0.75000  0.75000
E76   E   0.75000  0.86490  0.00000
E77   E   0.80961  0.05961  0.62500
E78   E   0.80961  0.44039  0.12500
E79   E   0.80961  0.55961  0.37500
E80   E   0.80961  0.94039  0.87500
E81   E   0.80961  0.05961  0.62500
E82   E   0.80961  0.07549  0.84081
E83   E   0.80961  0.42451  0.34081
E84   E   0.80961  0.44039  0.12500
E85   E   0.80961  0.55961  0.37500
E86   E   0.80961  0.57549  0.15919
E87   E   0.80961  0.92451  0.65919
E88   E   0.80961  0.94039  0.87500
E89   E   0.82549  0.05961  0.40919
E90   E   0.82549  0.44039  0.90919
E91   E   0.82549  0.55961  0.59081
E92   E   0.82549  0.94039  0.09081
E93   E   0.88510  0.00000  0.75000
E94   E   0.88510  0.50000  0.25000
loop_
