data_zbr_Imma  hall_number: 343, V_con: 5, EC_con: 3
_audit_creation_date              2025-03-06
_audit_creation_method            'MOFbuilder_1.0'
_symmetry_space_group_name_H-M    'P1'
_symmetry_Int_Tables_number       1
_symmetry_cell_setting            triclinic
loop_
_symmetry_equiv_pos_as_xyz
  x,y,z
_cell_length_a                    63.5291
_cell_length_b                    19.9999
_cell_length_c                    61.2939
_cell_angle_alpha                 90.0
_cell_angle_beta                  90.0
_cell_angle_gamma                 90.0
loop_
_atom_site_label
_atom_site_type_symbol
_atom_site_fract_x
_atom_site_fract_y
_atom_site_fract_z
V1    V   0.07870  0.00000  0.08157
V2    V   0.07870  0.00000  0.91843
V3    V   0.07870  0.50000  0.08157
V4    V   0.07870  0.50000  0.91843
V5    V   0.42130  0.00000  0.41843
V6    V   0.42130  0.00000  0.58157
V7    V   0.42130  0.50000  0.41843
V8    V   0.42130  0.50000  0.58157
V9    V   0.57870  0.00000  0.41843
V10   V   0.57870  0.00000  0.58157
V11   V   0.57870  0.50000  0.41843
V12   V   0.57870  0.50000  0.58157
V13   V   0.92130  0.00000  0.08157
V14   V   0.92130  0.00000  0.91843
V15   V   0.92130  0.50000  0.08157
V16   V   0.92130  0.50000  0.91843
EC1    EC   0.19260  0.00000  0.19419
EC2    EC   0.19260  0.00000  0.80581
EC3    EC   0.19260  0.50000  0.19419
EC4    EC   0.19260  0.50000  0.80581
EC5    EC   0.30740  0.00000  0.30581
EC6    EC   0.30740  0.00000  0.69419
EC7    EC   0.30740  0.50000  0.30581
EC8    EC   0.30740  0.50000  0.69419
EC9    EC   0.69260  0.00000  0.30581
EC10   EC   0.69260  0.00000  0.69419
EC11   EC   0.69260  0.50000  0.30581
EC12   EC   0.69260  0.50000  0.69419
EC13   EC   0.80740  0.00000  0.19419
EC14   EC   0.80740  0.00000  0.80581
EC15   EC   0.80740  0.50000  0.19419
EC16   EC   0.80740  0.50000  0.80581
E1    E   0.00000  0.00000  0.08157
E2    E   0.00000  0.00000  0.91843
E3    E   0.00000  0.50000  0.08157
E4    E   0.00000  0.50000  0.91843
E5    E   0.07870  0.00000  0.00000
E6    E   0.07870  0.25000  0.08157
E7    E   0.07870  0.25000  0.91843
E8    E   0.07870  0.50000  0.00000
E9    E   0.07870  0.75000  0.08157
E10   E   0.07870  0.75000  0.91843
E11   E   0.13565  0.00000  0.13788
E12   E   0.13565  0.00000  0.86212
E13   E   0.13565  0.50000  0.13788
E14   E   0.13565  0.50000  0.86212
E15   E   0.19260  0.25000  0.80581
E16   E   0.19260  0.75000  0.19419
E17   E   0.25000  0.00000  0.25000
E18   E   0.25000  0.00000  0.75000
E19   E   0.25000  0.50000  0.25000
E20   E   0.25000  0.50000  0.75000
E21   E   0.30740  0.25000  0.69419
E22   E   0.30740  0.75000  0.30581
E23   E   0.36435  0.00000  0.36212
E24   E   0.36435  0.00000  0.63788
E25   E   0.36435  0.50000  0.36212
E26   E   0.36435  0.50000  0.63788
E27   E   0.42130  0.00000  0.50000
E28   E   0.42130  0.25000  0.41843
E29   E   0.42130  0.25000  0.58157
E30   E   0.42130  0.50000  0.50000
E31   E   0.42130  0.75000  0.41843
E32   E   0.42130  0.75000  0.58157
E33   E   0.50000  0.00000  0.41843
E34   E   0.50000  0.00000  0.58157
E35   E   0.50000  0.50000  0.41843
E36   E   0.50000  0.50000  0.58157
E37   E   0.57870  0.00000  0.50000
E38   E   0.57870  0.25000  0.41843
E39   E   0.57870  0.25000  0.58157
E40   E   0.57870  0.50000  0.50000
E41   E   0.57870  0.75000  0.41843
E42   E   0.57870  0.75000  0.58157
E43   E   0.63565  0.00000  0.36212
E44   E   0.63565  0.00000  0.63788
E45   E   0.63565  0.50000  0.36212
E46   E   0.63565  0.50000  0.63788
E47   E   0.69260  0.25000  0.69419
E48   E   0.69260  0.75000  0.30581
E49   E   0.75000  0.00000  0.25000
E50   E   0.75000  0.00000  0.75000
E51   E   0.75000  0.50000  0.25000
E52   E   0.75000  0.50000  0.75000
E53   E   0.80740  0.25000  0.80581
E54   E   0.80740  0.75000  0.19419
E55   E   0.86435  0.00000  0.13788
E56   E   0.86435  0.00000  0.86212
E57   E   0.86435  0.50000  0.13788
E58   E   0.86435  0.50000  0.86212
E59   E   0.92130  0.00000  0.00000
E60   E   0.92130  0.25000  0.08157
E61   E   0.92130  0.25000  0.91843
E62   E   0.92130  0.50000  0.00000
E63   E   0.92130  0.75000  0.08157
E64   E   0.92130  0.75000  0.91843
loop_
