data_zfi_P4/ncc:2  hall_number: 411, V_con: 5
_audit_creation_date              2025-03-06
_audit_creation_method            'MOFbuilder_1.0'
_symmetry_space_group_name_H-M    'P1'
_symmetry_Int_Tables_number       1
_symmetry_cell_setting            triclinic
loop_
_symmetry_equiv_pos_as_xyz
  x,y,z
_cell_length_a                    21.9956
_cell_length_b                    21.9956
_cell_length_c                    34.4136
_cell_angle_alpha                 90.0
_cell_angle_beta                  90.0
_cell_angle_gamma                 90.0
loop_
_atom_site_label
_atom_site_type_symbol
_atom_site_fract_x
_atom_site_fract_y
_atom_site_fract_z
V1    V   0.05167  0.63892  0.61016
V2    V   0.05167  0.86108  0.11016
V3    V   0.13892  0.55167  0.88984
V4    V   0.13892  0.94833  0.38984
V5    V   0.36108  0.55167  0.38984
V6    V   0.36108  0.94833  0.88984
V7    V   0.44833  0.63892  0.11016
V8    V   0.44833  0.86108  0.61016
V9    V   0.55167  0.13892  0.38984
V10   V   0.55167  0.36108  0.88984
V11   V   0.63892  0.05167  0.11016
V12   V   0.63892  0.44833  0.61016
V13   V   0.86108  0.05167  0.61016
V14   V   0.86108  0.44833  0.11016
V15   V   0.94833  0.13892  0.88984
V16   V   0.94833  0.36108  0.38984
E1    E   0.00000  0.00000  0.00000
E2    E   0.00000  0.00000  0.50000
E3    E   0.00000  0.50000  0.00000
E4    E   0.00000  0.50000  0.50000
E5    E   0.04362  0.15471  0.38984
E6    E   0.04362  0.34529  0.88984
E7    E   0.09529  0.59529  0.75000
E8    E   0.09529  0.90471  0.25000
E9    E   0.09529  0.59529  0.75000
E10   E   0.09529  0.90471  0.25000
E11   E   0.15471  0.04362  0.88984
E12   E   0.15471  0.45638  0.38984
E13   E   0.25000  0.75000  0.11016
E14   E   0.25000  0.75000  0.38984
E15   E   0.25000  0.75000  0.61016
E16   E   0.25000  0.75000  0.88984
E17   E   0.34529  0.04362  0.38984
E18   E   0.34529  0.45638  0.88984
E19   E   0.40471  0.59529  0.25000
E20   E   0.40471  0.90471  0.75000
E21   E   0.45638  0.15471  0.88984
E22   E   0.45638  0.34529  0.38984
E23   E   0.50000  0.00000  0.00000
E24   E   0.50000  0.00000  0.50000
E25   E   0.50000  0.50000  0.00000
E26   E   0.50000  0.50000  0.50000
E27   E   0.54362  0.65471  0.61016
E28   E   0.54362  0.84529  0.11016
E29   E   0.59529  0.09529  0.25000
E30   E   0.59529  0.09529  0.25000
E31   E   0.59529  0.40471  0.75000
E32   E   0.65471  0.54362  0.11016
E33   E   0.65471  0.95638  0.61016
E34   E   0.75000  0.25000  0.11016
E35   E   0.75000  0.25000  0.38984
E36   E   0.75000  0.25000  0.61016
E37   E   0.75000  0.25000  0.88984
E38   E   0.84529  0.54362  0.61016
E39   E   0.84529  0.95638  0.11016
E40   E   0.90471  0.09529  0.75000
E41   E   0.90471  0.09529  0.75000
E42   E   0.90471  0.40471  0.25000
E43   E   0.95638  0.65471  0.11016
E44   E   0.95638  0.84529  0.61016
loop_
