data_zfk_P42/nbc:2  hall_number: 415, V_con: 5
_audit_creation_date              2025-03-06
_audit_creation_method            'MOFbuilder_1.0'
_symmetry_space_group_name_H-M    'P1'
_symmetry_Int_Tables_number       1
_symmetry_cell_setting            triclinic
loop_
_symmetry_equiv_pos_as_xyz
  x,y,z
_cell_length_a                    19.9667
_cell_length_b                    19.9667
_cell_length_c                    36.9154
_cell_angle_alpha                 90.0
_cell_angle_beta                  90.0
_cell_angle_gamma                 90.0
loop_
_atom_site_label
_atom_site_type_symbol
_atom_site_fract_x
_atom_site_fract_y
_atom_site_fract_z
V1    V   0.01445  0.16501  0.87259
V2    V   0.01445  0.33499  0.12741
V3    V   0.16501  0.01445  0.62741
V4    V   0.16501  0.48555  0.37259
V5    V   0.33499  0.01445  0.37259
V6    V   0.33499  0.48555  0.62741
V7    V   0.48555  0.16501  0.12741
V8    V   0.48555  0.33499  0.87259
V9    V   0.51445  0.66501  0.12741
V10   V   0.51445  0.83499  0.87259
V11   V   0.66501  0.51445  0.37259
V12   V   0.66501  0.98555  0.62741
V13   V   0.83499  0.51445  0.62741
V14   V   0.83499  0.98555  0.37259
V15   V   0.98555  0.66501  0.87259
V16   V   0.98555  0.83499  0.12741
E1    E   0.00000  0.08499  0.12741
E2    E   0.00000  0.41501  0.87259
E3    E   0.00000  0.58499  0.12741
E4    E   0.00000  0.91501  0.87259
E5    E   0.01445  0.25000  0.00000
E6    E   0.08499  0.00000  0.37259
E7    E   0.08499  0.50000  0.62741
E8    E   0.08973  0.08973  0.75000
E9    E   0.08973  0.41027  0.25000
E10   E   0.08973  0.08973  0.75000
E11   E   0.08973  0.41027  0.25000
E12   E   0.25000  0.01445  0.50000
E13   E   0.25000  0.25000  0.12741
E14   E   0.25000  0.25000  0.37259
E15   E   0.25000  0.25000  0.62741
E16   E   0.25000  0.25000  0.87259
E17   E   0.25000  0.48555  0.50000
E18   E   0.41027  0.08973  0.25000
E19   E   0.41027  0.08973  0.25000
E20   E   0.41027  0.41027  0.75000
E21   E   0.41501  0.00000  0.62741
E22   E   0.41501  0.50000  0.37259
E23   E   0.48555  0.25000  0.00000
E24   E   0.50000  0.08499  0.87259
E25   E   0.50000  0.41501  0.12741
E26   E   0.50000  0.58499  0.87259
E27   E   0.50000  0.91501  0.12741
E28   E   0.51445  0.75000  0.00000
E29   E   0.58499  0.00000  0.37259
E30   E   0.58499  0.50000  0.62741
E31   E   0.58973  0.58973  0.25000
E32   E   0.58973  0.91027  0.75000
E33   E   0.75000  0.51445  0.50000
E34   E   0.75000  0.75000  0.12741
E35   E   0.75000  0.75000  0.37259
E36   E   0.75000  0.75000  0.62741
E37   E   0.75000  0.75000  0.87259
E38   E   0.75000  0.98555  0.50000
E39   E   0.91027  0.58973  0.75000
E40   E   0.91027  0.91027  0.25000
E41   E   0.91501  0.00000  0.62741
E42   E   0.91501  0.50000  0.37259
E43   E   0.98555  0.75000  0.00000
loop_
