
#======================================================================
# CRYSTAL DATA
#----------------------------------------------------------------------
data_VESTA_phase_1

_chemical_name_common                  ''
_cell_length_a                         16.733000
_cell_length_b                         13.038000
_cell_length_c                         6.812000
_cell_angle_alpha                      90.000000
_cell_angle_beta                       90.000000
_cell_angle_gamma                      90.000000
_cell_volume                           1486.138936
_space_group_name_H-M_alt              'P 1'
_space_group_IT_number                 1

loop_
_space_group_symop_operation_xyz
   'x, y, z'

loop_
   _atom_site_label
   _atom_site_occupancy
   _atom_site_fract_x
   _atom_site_fract_y
   _atom_site_fract_z
   _atom_site_adp_type
   _atom_site_U_iso_or_equiv
   _atom_site_type_symbol
   Cr0        1.0     0.750000     0.250000     0.750000    Uiso  ? Cr
   O4         1.0     0.832000     0.161000     0.167000    Uiso  ? O
   O8         1.0     0.668000     0.161000     0.833000    Uiso  ? O
   C9         1.0     0.863000     0.132000     0.000000    Uiso  ? C
   Cr11       1.0     0.750000     0.250000     0.250000    Uiso  ? Cr
   O13        1.0     0.832000     0.161000     0.833000    Uiso  ? O
   O14        1.0     0.750000     0.314000     0.000000    Uiso  ? O
   O15        1.0     0.750000     0.186000     0.500000    Uiso  ? O
   O16        1.0     0.668000     0.161000     0.167000    Uiso  ? O
   O19        1.0     0.668000     0.339000     0.667000    Uiso  ? O
   O20        1.0     0.832000     0.339000     0.333000    Uiso  ? O
   O22        1.0     0.668000     0.339000     0.333000    Uiso  ? O
   O25        1.0     0.832000     0.339000     0.667000    Uiso  ? O
   C28        1.0     0.637000     0.132000     0.000000    Uiso  ? C
   C30        1.0     0.637000     0.368000     0.500000    Uiso  ? C
   C31        1.0     0.863000     0.368000     0.500000    Uiso  ? C
   H33        1.0     0.750000     0.389000     0.000000    Uiso  ? H
   H34        1.0     0.750000     0.111000     0.500000    Uiso  ? H
