# CIF file generated by openbabel 2.4.90, see http://openbabel.sf.net
data_I
_chemical_name_common ''
_cell_length_a 16.733
_cell_length_b 13.038
_cell_length_c 6.812
_cell_angle_alpha 90
_cell_angle_beta 90
_cell_angle_gamma 90
_space_group_name_H-M_alt 'P 1'
_space_group_name_Hall 'P 1'
loop_
    _symmetry_equiv_pos_as_xyz
    x,y,z
loop_
    _atom_site_label
    _atom_site_type_symbol
    _atom_site_fract_x
    _atom_site_fract_y
    _atom_site_fract_z
    _atom_site_occupancy
    Cr0     Cr   0.75000   0.25000   0.75000   1.000
    O4      O    0.83200   0.16100   0.16700   1.000
    O8      O    0.66800   0.16100   0.83300   1.000
    X9      C    0.86300   0.13200   0.00000   1.000
    Cr11    Cr   0.75000   0.25000   0.25000   1.000
    O13     O    0.83200   0.16100   0.83300   1.000
    X14     O    0.75000   0.31400   0.00000   1.000
    X15     O    0.75000   0.18600   0.50000   1.000
    O16     O    0.66800   0.16100   0.16700   1.000
    O19     O    0.66800   0.33900   0.66700   1.000
    O20     O    0.83200   0.33900   0.33300   1.000
    O22     O    0.66800   0.33900   0.33300   1.000
    O25     O    0.83200   0.33900   0.66700   1.000
    X28     C    0.63700   0.13200   0.00000   1.000
    X30     C    0.63700   0.36800   0.50000   1.000
    X31     C    0.86300   0.36800   0.50000   1.000
    H33     H    0.75000   0.38900   0.00000   1.000
    H34     H    0.75000   0.11100   0.50000   1.000
loop_
    _geom_bond_atom_site_label_1
    _geom_bond_atom_site_label_2
    _geom_bond_distance
    _geom_bond_site_symmetry_2
    _ccdc_geom_bond_type
    H33    X14       0.97785      .   A
    X9     O4        1.30621      .   S
    X9     O13       1.30621  1_554   S
    X28    O16       1.30621      .   S
    X28    O8        1.30621  1_554   S
    X14    Cr0       1.89644  1_554   A
    O16    Cr11      1.88383      .   S
    O4     Cr11      1.88383      .   S
    Cr11   O20       1.88383      .   S
    Cr11   O22       1.88383      .   S
    Cr11   X15       1.89644      .   S
    O20    X31       1.30621      .   S
    O22    X30       1.30621      .   S
    X15    H34       0.97785      .   S
    X31    O25       1.30621      .   S
    X30    O19       1.30621      .   S
    O19    Cr0       1.88383      .   S
    O25    Cr0       1.88383      .   S
    Cr0    O8        1.88383      .   S
    Cr0    O13       1.88383      .   S
    X14    Cr11      1.89644      .   S
    X15    Cr0       1.89644      .   S

