# CIF file generated by openbabel 2.4.90, see http://openbabel.sf.net
data_I
_chemical_name_common ''
_cell_length_a 16.733
_cell_length_b 13.038
_cell_length_c 6.812
_cell_angle_alpha 90
_cell_angle_beta 90
_cell_angle_gamma 90
_space_group_name_H-M_alt 'P 1'
_space_group_name_Hall 'P 1'
loop_
    _symmetry_equiv_pos_as_xyz
    x,y,z
loop_
    _atom_site_label
    _atom_site_type_symbol
    _atom_site_fract_x
    _atom_site_fract_y
    _atom_site_fract_z
    _atom_site_occupancy
    Zr0     Zr   0.25000   0.75000   0.25000   1.000
    Zr1     Zr   0.75000   0.25000   0.25000   1.000
    Zr2     Zr   0.75000   0.25000   0.75000   1.000
    Zr3     Zr   0.25000   0.75000   0.75000   1.000
    N4      N    0.50000   0.50000   0.50000   1.000
    N5      N    0.00000   0.50000   0.50000   1.000
    N6      N    0.50000   0.00000   0.00000   1.000
    N7      N    0.00000   0.00000   0.00000   1.000
    C8      C    0.84233   0.15133   0.00000   1.000
    O9      O    0.81667   0.17842   0.10425   1.000
    O10     O    0.81667   0.17842   0.89575   1.000
    O11     O    0.89579   0.10004   0.00000   1.000
    C12     C    0.75000   0.14850   0.50000   1.000
    O13     O    0.75000   0.18325   0.43750   1.000
    O14     O    0.75000   0.18325   0.56250   1.000
    C15     C    0.65767   0.15133   0.00000   1.000
    O16     O    0.68333   0.17842   0.89575   1.000
    O17     O    0.68333   0.17842   0.10425   1.000
    O18     O    0.60421   0.10004   0.00000   1.000
    C19     C    0.75000   0.35150   0.00000   1.000
    O20     O    0.75000   0.31675   0.93750   1.000
    O21     O    0.75000   0.31675   0.06250   1.000
    C22     C    0.84233   0.34867   0.50000   1.000
    O23     O    0.81667   0.32158   0.39575   1.000
    O24     O    0.89579   0.39996   0.50000   1.000
    O25     O    0.81667   0.32158   0.60425   1.000
    C26     C    0.65767   0.34867   0.50000   1.000
    O27     O    0.60421   0.39996   0.50000   1.000
    O28     O    0.68333   0.32158   0.39575   1.000
    O29     O    0.68333   0.32158   0.60425   1.000
    C30     C    0.34233   0.65133   0.50000   1.000
    O31     O    0.31667   0.67842   0.60425   1.000
    O32     O    0.31667   0.67842   0.39575   1.000
    O33     O    0.39579   0.60004   0.50000   1.000
    C34     C    0.15767   0.84867   0.00000   1.000
    O35     O    0.10421   0.89996   0.00000   1.000
    O36     O    0.18333   0.82158   0.89575   1.000
    O37     O    0.18333   0.82158   0.10425   1.000
    C38     C    0.34233   0.84867   0.00000   1.000
    O39     O    0.31667   0.82158   0.89575   1.000
    O40     O    0.39579   0.89996   0.00000   1.000
    O41     O    0.31667   0.82158   0.10425   1.000
    C42     C    0.25000   0.64850   0.00000   1.000
    O43     O    0.25000   0.68325   0.06250   1.000
    O44     O    0.25000   0.68325   0.93750   1.000
    C45     C    0.25000   0.85150   0.50000   1.000
    O46     O    0.25000   0.81675   0.43750   1.000
    O47     O    0.25000   0.81675   0.56250   1.000
    C48     C    0.15767   0.65133   0.50000   1.000
    O49     O    0.10421   0.60004   0.50000   1.000
    O50     O    0.18333   0.67842   0.60425   1.000
    O51     O    0.18333   0.67842   0.39575   1.000
loop_
    _geom_bond_atom_site_label_1
    _geom_bond_atom_site_label_2
    _geom_bond_distance
    _geom_bond_site_symmetry_2
    _ccdc_geom_bond_type
    C8     O9        0.90192      .   S
    Zr1    O9        1.76103      .   S
    C8     O10       0.90192  1_554   S
    Zr2    O10       1.76103      .   S
    C8     O11       1.11686      .   S
    N7     O11       2.17758  1_455   S
    C12    O13       0.62172      .   S
    Zr1    O13       1.54556      .   S
    C12    O14       0.62172      .   S
    Zr2    O14       1.54556      .   S
    C15    O16       0.90192  1_554   S
    Zr2    O16       1.76103      .   S
    C15    O17       0.90192      .   S
    Zr1    O17       1.76103      .   S
    C15    O18       1.11686      .   S
    N6     O18       2.17758      .   S
    C19    O20       0.62172  1_554   S
    Zr2    O20       1.54556      .   S
    C19    O21       0.62172      .   S
    Zr1    O21       1.54556      .   S
    C22    O23       0.90192      .   S
    Zr1    O23       1.76103      .   S
    C22    O24       1.11686      .   S
    N5     O24       2.17758  1_455   S
    C22    O25       0.90192      .   S
    Zr2    O25       1.76103      .   S
    C26    O27       1.11686      .   S
    N4     O27       2.17758      .   S
    C26    O28       0.90192      .   S
    Zr1    O28       1.76103      .   S
    C26    O29       0.90192      .   S
    Zr2    O29       1.76103      .   S
    C30    O31       0.90192      .   S
    Zr3    O31       1.76103      .   S
    C30    O32       0.90192      .   S
    Zr0    O32       1.76103      .   S
    C30    O33       1.11686      .   S
    N4     O33       2.17758      .   S
    C34    O35       1.11686      .   S
    N7     O35       2.17758  1_545   S
    C34    O36       0.90192  1_554   S
    Zr3    O36       1.76103      .   S
    C34    O37       0.90192      .   S
    Zr0    O37       1.76103      .   S
    C38    O39       0.90192  1_554   S
    Zr3    O39       1.76103      .   S
    C38    O40       1.11686      .   S
    N6     O40       2.17758  1_545   S
    C38    O41       0.90192      .   S
    Zr0    O41       1.76103      .   S
    C42    O43       0.62172      .   S
    Zr0    O43       1.54556      .   S
    C42    O44       0.62172  1_554   S
    Zr3    O44       1.54556      .   S
    C45    O46       0.62172      .   S
    Zr0    O46       1.54556      .   S
    C45    O47       0.62172      .   S
    Zr3    O47       1.54556      .   S
    C48    O49       1.11686      .   S
    N5     O49       2.17758      .   S
    C48    O50       0.90192      .   S
    Zr3    O50       1.76103      .   S
    C48    O51       0.90192      .   S
    Zr0    O51       1.76103      .   S
