
#======================================================================
# CRYSTAL DATA
#----------------------------------------------------------------------
data_VESTA_phase_1

_chemical_name_common                  'sym_8_mc_9'
_cell_length_a                         20.000000
_cell_length_b                         20.000000
_cell_length_c                         20.000000
_cell_angle_alpha                      90.000000
_cell_angle_beta                       90.000000
_cell_angle_gamma                      90.000000
_cell_volume                           8000.000000
_space_group_name_H-M_alt              'P 1'
_space_group_IT_number                 1

loop_
_space_group_symop_operation_xyz
   'x, y, z'

loop_
   _atom_site_label
   _atom_site_occupancy
   _atom_site_fract_x
   _atom_site_fract_y
   _atom_site_fract_z
   _atom_site_adp_type
   _atom_site_U_iso_or_equiv
   _atom_site_type_symbol
   O1         1.0     0.089960     0.869990     0.881090    Uiso  ? O
   O2         1.0     0.171920     0.941310     0.947230    Uiso  ? O
   X3         1.0     0.154840     0.895020     0.896190    Uiso  ? C
   O4         1.0     0.910030     0.118270     0.869400    Uiso  ? O
   O5         1.0     0.828080     0.053470     0.941950    Uiso  ? O
   X6         1.0     0.845150     0.094770     0.886790    Uiso  ? C
   O7         1.0     0.089960     0.118270     0.869400    Uiso  ? O
   O8         1.0     0.171920     0.053470     0.941950    Uiso  ? O
   X9         1.0     0.154840     0.094770     0.886790    Uiso  ? C
   O10        1.0     0.910030     0.869990     0.881090    Uiso  ? O
   O11        1.0     0.828080     0.941310     0.947230    Uiso  ? O
   X12        1.0     0.845150     0.895020     0.896190    Uiso  ? C
   Zr13       1.0     0.000000     0.912790     0.920850    Uiso  ? Zr
   O14        1.0     0.000000     0.914640     0.815650    Uiso  ? O
   O15        1.0     0.991370     0.806700     0.928120    Uiso  ? O
   Zr16       1.0     0.000000     0.079390     0.913010    Uiso  ? Zr
   O17        1.0     0.009610     0.074150     0.806870    Uiso  ? O
   O18        1.0     0.988830     0.184880     0.916680    Uiso  ? O
   O19        1.0     0.060760     0.995450     0.903320    Uiso  ? O
   O20        1.0     0.939240     0.995450     0.903320    Uiso  ? O
   O21        1.0     0.910030     0.881730     0.130600    Uiso  ? O
   O22        1.0     0.828080     0.946530     0.058050    Uiso  ? O
   X23        1.0     0.845150     0.905230     0.113210    Uiso  ? C
   O24        1.0     0.089960     0.130010     0.118910    Uiso  ? O
   O25        1.0     0.171920     0.058690     0.052770    Uiso  ? O
   X26        1.0     0.154840     0.104980     0.103810    Uiso  ? C
   O27        1.0     0.910030     0.130010     0.118910    Uiso  ? O
   O28        1.0     0.828080     0.058690     0.052770    Uiso  ? O
   X29        1.0     0.845150     0.104980     0.103810    Uiso  ? C
   O30        1.0     0.089960     0.881730     0.130600    Uiso  ? O
   O31        1.0     0.171920     0.946530     0.058050    Uiso  ? O
   X32        1.0     0.154840     0.905230     0.113210    Uiso  ? C
   Zr33       1.0     0.000000     0.920610     0.086990    Uiso  ? Zr
   O34        1.0     0.008890     0.927260     0.193170    Uiso  ? O
   O35        1.0     0.002070     0.814580     0.085390    Uiso  ? O
   Zr36       1.0     0.000000     0.087210     0.079150    Uiso  ? Zr
   O37        1.0     0.997220     0.090730     0.185000    Uiso  ? O
   O38        1.0     0.003580     0.192770     0.065050    Uiso  ? O
   Zr39       1.0     0.099760     0.000000     0.000000    Uiso  ? Zr
   Zr40       1.0     0.900230     0.000000     0.000000    Uiso  ? Zr
   O41        1.0     0.939240     0.004550     0.096680    Uiso  ? O
   O42        1.0     0.060760     0.004550     0.096680    Uiso  ? O
   O43        1.0     0.938710     0.903090     0.004560    Uiso  ? O
   O44        1.0     0.061290     0.096910     0.995440    Uiso  ? O
   O45        1.0     0.061290     0.903090     0.004560    Uiso  ? O
   O46        1.0     0.938710     0.096910     0.995440    Uiso  ? O
   H47        1.0     0.909930     0.993240     0.856260    Uiso  ? H
   H48        1.0     0.091650     0.143220     0.993260    Uiso  ? H
   H49        1.0     0.909930     0.006760     0.143740    Uiso  ? H
   H50        1.0     0.091650     0.856780     0.006740    Uiso  ? H
   H51        1.0     0.032840     0.206120     0.924150    Uiso  ? H
   H52        1.0     0.962430     0.206940     0.041460    Uiso  ? H
   H53        1.0     0.031310     0.059190     0.202100    Uiso  ? H
   H54        1.0     0.971970     0.954380     0.211500    Uiso  ? H
   H55        1.0     0.963390     0.798430     0.059060    Uiso  ? H
   H56        1.0     0.028970     0.788720     0.954520    Uiso  ? H
   H57        1.0     0.037190     0.943130     0.799660    Uiso  ? H
   H58        1.0     0.973290     0.046260     0.788470    Uiso  ? H
   H59        1.0     0.000750     0.881940     0.211660    Uiso  ? H
   H60        1.0     0.998820     0.788180     0.882700    Uiso  ? H
   H61        1.0     0.000420     0.119420     0.788740    Uiso  ? H
   H62        1.0     0.999920     0.213610     0.109890    Uiso  ? H
