data_12c_Zr_1_Ch_dummy
_audit_creation_date              2025-02-07
_audit_creation_method            'MOFbuilder'
_symmetry_space_group_name_H-M    'P1'
_symmetry_Int_Tables_number       1
_symmetry_cell_setting            triclinic
loop_
_symmetry_equiv_pos_as_xyz
  x,y,z
_cell_length_a                    50
_cell_length_b                    50
_cell_length_c                    50
_cell_angle_alpha                 90
_cell_angle_beta                  90
_cell_angle_gamma                 90
loop_
_atom_site_label
_atom_site_type_symbol
_atom_site_fract_x
_atom_site_fract_y
_atom_site_fract_z
D55        D    0.0017112115    0.0161138983    0.9407824766   0.00000  Uiso   1.00       -0.000000
D56        D    0.0246798921    0.0080968651    0.9552104663   0.00000  Uiso   1.00       -0.000000
D57        D    0.0100025585    0.9868661462    0.9667790640   0.00000  Uiso   1.00       -0.000000
D58        D    0.9870338779    0.9948831794    0.9523510742   0.00000  Uiso   1.00       -0.000000
D59        D    0.0169709852    0.0036646508    0.9372959965   0.00000  Uiso   1.00       -0.000000
D60        D    0.0022936516    0.9824339319    0.9488645941   0.00000  Uiso   1.00       -0.000000
D61        D    0.9947427848    0.9993153937    0.9702655440   0.00000  Uiso   1.00       -0.000000
D62        D    0.0094201184    0.0205461126    0.9586969464   0.00000  Uiso   1.00       -0.000000
Zr9       Zr    1.0000000000    1.0000000000    0.9503600000   0.00000  Uiso   1.00       -0.000000
D63        D    0.0592175234    0.0017112115    0.9838861017   0.00000  Uiso   1.00       -0.000000
D64        D    0.0447895337    0.0246798921    0.9919031349   0.00000  Uiso   1.00       -0.000000
D65        D    0.0332209360    0.0100025585    0.0131338538   0.00000  Uiso   1.00       -0.000000
D66        D    0.0476489258    0.9870338779    0.0051168206   0.00000  Uiso   1.00       -0.000000
D67        D    0.0627040035    0.0169709852    0.9963353492   0.00000  Uiso   1.00       -0.000000
D68        D    0.0511354059    0.0022936516    0.0175660681   0.00000  Uiso   1.00       -0.000000
D69        D    0.0297344560    0.9947427848    0.0006846063   0.00000  Uiso   1.00       -0.000000
D70        D    0.0413030536    0.0094201184    0.9794538874   0.00000  Uiso   1.00       -0.000000
Zr36      Zr    0.0496400000    0.0000000000    0.0000000000   0.00000  Uiso   1.00       -0.000000
D71        D    0.9395756549    0.0026659504    0.9824540795   0.00000  Uiso   1.00       -0.000000
D72        D    0.9362996117    0.9989094318    0.0102957049   0.00000  Uiso   1.00       -0.000000
D73        D    0.9630459204    0.9899152066    0.0122293236   0.00000  Uiso   1.00       -0.000000
D74        D    0.9663219636    0.9936717252    0.9843876982   0.00000  Uiso   1.00       -0.000000
D75        D    0.9422359617    0.0140635383    0.9986719016   0.00000  Uiso   1.00       -0.000000
D76        D    0.9689822704    0.0050693131    0.0006055203   0.00000  Uiso   1.00       -0.000000
D77        D    0.9603856136    0.9785176187    0.9960115015   0.00000  Uiso   1.00       -0.000000
D78        D    0.9336393049    0.9875118438    0.9940778828   0.00000  Uiso   1.00       -0.000000
Zr37      Zr    0.9503600000    0.0000000000    0.0000000000   0.00000  Uiso   1.00       -0.000000
D79        D    0.0017112115    0.0592175234    0.9838861017   0.00000  Uiso   1.00       -0.000000
D80        D    0.0046164605    0.0609630950    0.0119665665   0.00000  Uiso   1.00       -0.000000
D81        D    0.0100025585    0.0332209360    0.0131338538   0.00000  Uiso   1.00       -0.000000
D82        D    0.0070973095    0.0314753644    0.9850533890   0.00000  Uiso   1.00       -0.000000
D83        D    0.0169709852    0.0627040035    0.9963353492   0.00000  Uiso   1.00       -0.000000
D84        D    0.0223570832    0.0349618445    0.9975026365   0.00000  Uiso   1.00       -0.000000
D85        D    0.9947427848    0.0297344560    0.0006846063   0.00000  Uiso   1.00       -0.000000
D86        D    0.9893566868    0.0574766150    0.9995173190   0.00000  Uiso   1.00       -0.000000
Zr38      Zr    0.0000000000    0.0496400000    0.0000000000   0.00000  Uiso   1.00       -0.000000
D87        D    0.9824540795    0.9395756549    0.9973340496   0.00000  Uiso   1.00       -0.000000
D88        D    0.9960863797    0.9620456175    0.9868812430   0.00000  Uiso   1.00       -0.000000
D89        D    0.0122293236    0.9630459204    0.0100847934   0.00000  Uiso   1.00       -0.000000
D90        D    0.9985970234    0.9405759578    0.0205376001   0.00000  Uiso   1.00       -0.000000
D91        D    0.9986719016    0.9422359617    0.9859364617   0.00000  Uiso   1.00       -0.000000
D92        D    0.0148148456    0.9432362646    0.0091400121   0.00000  Uiso   1.00       -0.000000
D93        D    0.9960115015    0.9603856136    0.0214823813   0.00000  Uiso   1.00       -0.000000
D94        D    0.9798685575    0.9593853107    0.9982788309   0.00000  Uiso   1.00       -0.000000
Zr39      Zr    1.0000000000    0.9503600000    0.0000000000   0.00000  Uiso   1.00       -0.000000
D100       D    0.0050693131    0.9993944797    0.0310177296   0.00000  Uiso   1.00       -0.000000
D101       D    0.9785176187    0.0039884985    0.0396143864   0.00000  Uiso   1.00       -0.000000
D102       D    0.9875118438    0.0059221172    0.0663606951   0.00000  Uiso   1.00       -0.000000
D95        D    0.0026659504    0.0175459205    0.0604243451   0.00000  Uiso   1.00       -0.000000
D96        D    0.9989094318    0.9897042951    0.0637003883   0.00000  Uiso   1.00       -0.000000
D97        D    0.9899152066    0.9877706764    0.0369540796   0.00000  Uiso   1.00       -0.000000
D98        D    0.9936717252    0.0156123018    0.0336780364   0.00000  Uiso   1.00       -0.000000
D99        D    0.0140635383    0.0013280984    0.0577640383   0.00000  Uiso   1.00       -0.000000
Zr40      Zr    0.0000000000    0.0000000000    0.0496400000   0.00000  Uiso   1.00       -0.000000
H16        H    0.0372600000    0.0372600000    0.9627400000   0.00000  Uiso   1.00       -0.000000
O17        O    0.0232240000    0.0232240000    0.9767760000   0.00000  Uiso   1.00       -0.000000
H18        H    0.9627400000    0.9627400000    0.9627400000   0.00000  Uiso   1.00       -0.000000
O19        O    0.9767760000    0.9767760000    0.9767760000   0.00000  Uiso   1.00       -0.000000
H51        H    0.9627400000    0.0372600000    0.0372600000   0.00000  Uiso   1.00       -0.000000
O52        O    0.9767760000    0.0232240000    0.0232240000   0.00000  Uiso   1.00       -0.000000
H53        H    0.0372600000    0.9627400000    0.0372600000   0.00000  Uiso   1.00       -0.000000
O54        O    0.0232240000    0.9767760000    0.0232240000   0.00000  Uiso   1.00       -0.000000
O10        O    0.0232240000    0.9767760000    0.9767760000   0.00000  Uiso   1.00       -0.000000
O11        O    0.9767760000    0.0232240000    0.9767760000   0.00000  Uiso   1.00       -0.000000
O41        O    0.9767760000    0.9767760000    0.0232240000   0.00000  Uiso   1.00       -0.000000
O42        O    0.0232240000    0.0232240000    0.0232240000   0.00000  Uiso   1.00       -0.000000
O1         O    0.9294120000    1.0000000000    0.9605440000   0.00000  Uiso   1.00       -0.000000
O8         O    0.9605440000    1.0000000000    0.9294120000   0.00000  Uiso   1.00       -0.000000
X12        C    0.9364120000    1.0000000000    0.9364120000   0.00000  Uiso   1.00       -0.000000
O2         O    0.0705880000    1.0000000000    0.9605440000   0.00000  Uiso   1.00       -0.000000
O7         O    0.0394560000    1.0000000000    0.9294120000   0.00000  Uiso   1.00       -0.000000
X13        C    0.0635880000    1.0000000000    0.9364120000   0.00000  Uiso   1.00       -0.000000
O3         O    1.0000000000    0.0394560000    0.9294120000   0.00000  Uiso   1.00       -0.000000
O6         O    0.0000000000    0.0705880000    0.9605440000   0.00000  Uiso   1.00       -0.000000
X14        C    0.0000000000    0.0635880000    0.9364120000   0.00000  Uiso   1.00       -0.000000
O4         O    1.0000000000    0.9605440000    0.9294120000   0.00000  Uiso   1.00       -0.000000
O5         O    1.0000000000    0.9294120000    0.9605440000   0.00000  Uiso   1.00       -0.000000
X15        C    1.0000000000    0.9364120000    0.9364120000   0.00000  Uiso   1.00       -0.000000
O20        O    0.0705880000    0.0000000000    0.0394560000   0.00000  Uiso   1.00       -0.000000
O34        O    0.0394560000    0.0000000000    0.0705880000   0.00000  Uiso   1.00       -0.000000
X43        C    0.0635880000    0.0000000000    0.0635880000   0.00000  Uiso   1.00       -0.000000
O21        O    0.9294120000    0.0000000000    0.0394560000   0.00000  Uiso   1.00       -0.000000
O35        O    0.9605440000    0.0000000000    0.0705880000   0.00000  Uiso   1.00       -0.000000
X44        C    0.9364120000    0.0000000000    0.0635880000   0.00000  Uiso   1.00       -0.000000
O22        O    0.0394560000    0.0705880000    0.0000000000   0.00000  Uiso   1.00       -0.000000
O30        O    0.0705880000    0.0394560000    0.0000000000   0.00000  Uiso   1.00       -0.000000
X45        C    0.0635880000    0.0635880000    0.0000000000   0.00000  Uiso   1.00       -0.000000
O23        O    0.0394560000    0.9294120000    0.0000000000   0.00000  Uiso   1.00       -0.000000
O33        O    0.0705880000    0.9605440000    0.0000000000   0.00000  Uiso   1.00       -0.000000
X46        C    0.0635880000    0.9364120000    0.0000000000   0.00000  Uiso   1.00       -0.000000
O24        O    0.9605440000    0.9294120000    0.0000000000   0.00000  Uiso   1.00       -0.000000
O32        O    0.9294120000    0.9605440000    0.0000000000   0.00000  Uiso   1.00       -0.000000
X47        C    0.9364120000    0.9364120000    0.0000000000   0.00000  Uiso   1.00       -0.000000
O25        O    0.9605440000    0.0705880000    0.0000000000   0.00000  Uiso   1.00       -0.000000
O31        O    0.9294120000    0.0394560000    0.0000000000   0.00000  Uiso   1.00       -0.000000
X48        C    0.9364120000    0.0635880000    0.0000000000   0.00000  Uiso   1.00       -0.000000
O26        O    0.0000000000    0.0394560000    0.0705880000   0.00000  Uiso   1.00       -0.000000
O28        O    0.0000000000    0.0705880000    0.0394560000   0.00000  Uiso   1.00       -0.000000
X49        C    0.0000000000    0.0635880000    0.0635880000   0.00000  Uiso   1.00       -0.000000
O27        O    0.0000000000    0.9605440000    0.0705880000   0.00000  Uiso   1.00       -0.000000
O29        O    1.0000000000    0.9294120000    0.0394560000   0.00000  Uiso   1.00       -0.000000
X50        C    0.0000000000    0.9364120000    0.0635880000   0.00000  Uiso   1.00       -0.000000
loop_
_geom_bond_atom_site_label_1
_geom_bond_atom_site_label_2
_geom_bond_distance
_geom_bond_site_symmetry_2
_ccdc_geom_bond_type
D62         Zr9 1.000       .   S
D59         Zr9 1.000       .   S
D60         Zr9 1.000       .   S
D55         Zr9 1.000       .   S
D56         Zr9 1.000       .   S
Zr9         D57 1.000       .   S
Zr9         D58 1.000       .   S
Zr9         D61 1.000       .   S
D66        Zr36 1.000       .   S
D68        Zr36 1.000       .   S
D65        Zr36 1.000       .   S
D64        Zr36 1.000       .   S
Zr36        D63 1.000       .   S
Zr36        D67 1.000       .   S
Zr36        D69 1.000       .   S
Zr36        D70 1.000       .   S
D77        Zr37 1.000       .   S
Zr37        D71 1.000       .   S
Zr37        D72 1.000       .   S
Zr37        D73 1.000       .   S
Zr37        D74 1.000       .   S
Zr37        D75 1.000       .   S
Zr37        D76 1.000       .   S
Zr37        D78 1.000       .   S
D82        Zr38 1.000       .   S
Zr38        D79 1.000       .   S
Zr38        D80 1.000       .   S
Zr38        D81 1.000       .   S
Zr38        D83 1.000       .   S
Zr38        D84 1.000       .   S
Zr38        D85 1.000       .   S
Zr38        D86 1.000       .   S
D87        Zr39 1.000       .   S
D90        Zr39 1.000       .   S
D89        Zr39 1.000       .   S
D88        Zr39 1.000       .   S
Zr39        D91 1.000       .   S
Zr39        D92 1.000       .   S
Zr39        D93 1.000       .   S
Zr39        D94 1.000       .   S
D101       Zr40 1.000       .   S
D99        Zr40 1.000       .   S
D97        Zr40 1.000       .   S
D98        Zr40 1.000       .   S
D102       Zr40 1.000       .   S
D96        Zr40 1.000       .   S
Zr40        D95 1.000       .   S
Zr40       D100 1.000       .   S
H16         O17 1.000       .   S
O19         H18 1.000       .   S
O52         H51 1.000       .   S
O54         H53 1.000       .   S
O8          X12 1.000       .   A
X12          O1 1.000       .   A
O2          X13 1.000       .   A
O7          X13 1.000       .   A
O3          X14 1.000       .   A
X14          O6 1.000       .   A
X15          O4 1.000       .   A
X15          O5 1.000       .   A
O34         X43 1.000       .   A
X43         O20 1.000       .   A
O21         X44 1.000       .   A
X44         O35 1.000       .   A
X45         O22 1.000       .   A
X45         O30 1.000       .   A
X46         O23 1.000       .   A
X46         O33 1.000       .   A
O24         X47 1.000       .   A
O32         X47 1.000       .   A
O25         X48 1.000       .   A
X48         O31 1.000       .   A
O26         X49 1.000       .   A
X49         O28 1.000       .   A
X50         O27 1.000       .   A
X50         O29 1.000       .   A
