data_6c_Al_1_Ch_dummy
_audit_creation_date              2025-01-03
_audit_creation_method            'MOFbuilder'
_symmetry_space_group_name_H-M    'P1'
_symmetry_Int_Tables_number       1
_symmetry_cell_setting            triclinic
loop_
_symmetry_equiv_pos_as_xyz
  x,y,z
_cell_length_a                    50
_cell_length_b                    50
_cell_length_c                    50
_cell_angle_alpha                 90
_cell_angle_beta                  90
_cell_angle_gamma                 90
loop_
_atom_site_label
_atom_site_type_symbol
_atom_site_fract_x
_atom_site_fract_y
_atom_site_fract_z
Al18      Al    0.4944000000    0.4755800000    0.5278800000   0.00000  Uiso   1.00       -0.000000
Al5       Al    0.4774700000    0.4979900000    0.4708700000   0.00000  Uiso   1.00       -0.000000
Al9       Al    0.5284100000    0.5213800000    0.5000100000   0.00000  Uiso   1.00       -0.000000
O1         O    0.5419200000    0.5104700000    0.4659700000   0.00000  Uiso   1.00       -0.000000
O10        O    0.5044500000    0.5006700000    0.5550800000   0.00000  Uiso   1.00       -0.000000
O11        O    0.4831200000    0.4449400000    0.5073000000   0.00000  Uiso   1.00       -0.000000
O12        O    0.4593200000    0.4871400000    0.5334900000   0.00000  Uiso   1.00       -0.000000
O13        O    0.4775400000    0.4614700000    0.4661300000   0.00000  Uiso   1.00       -0.000000
O14        O    0.5004400000    0.4982600000    0.4998300000   0.00000  Uiso   1.00       -0.000000
O15        O    0.5047800000    0.5008800000    0.4438900000   0.00000  Uiso   1.00       -0.000000
O19        O    0.5108400000    0.5515900000    0.4848700000   0.00000  Uiso   1.00       -0.000000
O22        O    0.5528200000    0.4977700000    0.5158000000   0.00000  Uiso   1.00       -0.000000
O3         O    0.4455900000    0.4966900000    0.4923500000   0.00000  Uiso   1.00       -0.000000
O4         O    0.4717500000    0.5352900000    0.4706700000   0.00000  Uiso   1.00       -0.000000
O7         O    0.5208200000    0.5365800000    0.5336200000   0.00000  Uiso   1.00       -0.000000
O8         O    0.5298900000    0.4611600000    0.5282700000   0.00000  Uiso   1.00       -0.000000
X16        C    0.5291700000    0.5041700000    0.4450800000   0.00000  Uiso   1.00       -0.000000
X17        C    0.5125200000    0.5242400000    0.5544300000   0.00000  Uiso   1.00       -0.000000
X2         C    0.4422300000    0.4970600000    0.5163800000   0.00000  Uiso   1.00       -0.000000
X20        C    0.4773700000    0.4425300000    0.4833700000   0.00000  Uiso   1.00       -0.000000
X21        C    0.5516500000    0.4736500000    0.5246900000   0.00000  Uiso   1.00       -0.000000
X6         C    0.4880600000    0.5537700000    0.4756000000   0.00000  Uiso   1.00       -0.000000
loop_
_geom_bond_atom_site_label_1
_geom_bond_atom_site_label_2
_geom_bond_distance
_geom_bond_site_symmetry_2
_ccdc_geom_bond_type
O1          X16 1.000       .   A
O1          Al9 1.000       .   S
X2          O12 1.000       .   A
X2           O3 1.000       .   A
O3          Al5 1.000       .   S
O4          Al5 1.000       .   S
O4           X6 1.000       .   A
Al5         O13 1.000       .   S
Al5         O14 1.000       .   S
Al5         O15 1.000       .   S
X6          O19 1.000       .   A
O7          Al9 1.000       .   S
O7          X17 1.000       .   A
O8         Al18 1.000       .   S
O8          X21 1.000       .   A
Al9         O14 1.000       .   S
Al9         O22 1.000       .   S
Al9         O19 1.000       .   S
O10        Al18 1.000       .   S
O10         X17 1.000       .   A
O11         X20 1.000       .   A
O11        Al18 1.000       .   S
O12        Al18 1.000       .   S
O13         X20 1.000       .   A
O14        Al18 1.000       .   S
O15         X16 1.000       .   A
X21         O22 1.000       .   A
